#RADIOSS STARTER
# Copyright (C) 2022 Altair Engineering Inc. ("Holder")
# Model is licensed by Holder under CC BY-NC 4.0
# (https://creativecommons.org/licenses/by-nc/4.0/legalcode).
#--------------------------------------------------------------------------------------------------|
#- RADIOSS DECK WRITTEN BY HyperCrash
#HyperCrash 11.0 401 (64 bits) 
#Tue Aug 14 10:37:45 2012
#-
#-
#- DATE	Tue Aug 14 10:37:45 2012
#--------------------------------------------------------------------------------------------------|
#---1----|----2----|----3----|----4----|----5----|----6----|----7----|----8----|----9----|---10----|
/BEGIN
L51_JWL_PG_P-E                                                              
       100         0
                   g                  mm                  ms
                   g                  mm                  ms
#---1----|----2----|----3----|----4----|----5----|----6----|----7----|----8----|----9----|---10----|
#-  1. CONTROL CARDS:
#---1----|----2----|----3----|----4----|----5----|----6----|----7----|----8----|----9----|---10----|
/TITLE
JWL DEGENERATED INTO PERFECT GAS COUPLED WITH PURE PERFECT GAS (total pressure)
/SPMD
#   DOMDEC      SPMD              DECMOT
         0         0                   0
/IOFLAG
#     IPRI     IRTYP     IGTYP     IOUTP    IOUTYY   IROOTYY                                 IRTYP_R
         5         0         0         0         0         0                                       0
/ANALY
#    N2D3D     INTEG   IPARITH      ISUB
         0         0         0         0
/DEF_SOLID
#  I_SOLID    ISMSTR             ISTRAIN                                  IFRAME
         0         0                   0                                       0
#---1----|----2----|----3----|----4----|----5----|----6----|----7----|----8----|----9----|---10----|
#-  2. MATERIALS:
#---1----|----2----|----3----|----4----|----5----|----6----|----7----|----8----|----9----|---10----|
/MAT/LAW51/1
explosive (Detonation Products pressure in Pa)
#---------------------------------------------------------------------------------------------------
#                    Material Law No 51. MULTI-MATERIAL SOLID LIQUID GAS -ALE-CFD-SPH               
#---------------------------------------------------------------------------------------------------
#              RHO_I               RHO_0
                   1                   0
#     IFLG
        10
#              P_EXT                  NU               LAMDA
                   0                   0                   0
#            ALPHA_1             RHO_0_1               E_0_1             P_MIN_1               C_0_1
                 0.5               1.204              250000               1E-30                   0
#              C_1_1               C_2_1               C_3_1               C_4_1               C_5_1
                   0                   0                   0                  .4                  .4
#                G_1           SIGMA_Y_1                BB_1                 N_1
                   0                   0                   0                   0
#               CC_1     EPSILON_DOT_0_1
                   0                   0
#               CM_1                T_10             T_1MELT            T_1LIMIT             RHOCV_1
                   0                   0                   0                   0                   0
#      EPSILON_MAX_1         SIGMA_MAX_1               K_A_1               K_B_1
                   0                   0                   0                   0
#            ALPHA_2             RHO_0_2               E_0_2             P_MIN_2               C_0_2
                   0                   0                   0                   0                   0
#              C_1_2               C_2_2               C_3_2               C_4_2               C_5_2
                   0                   0                   0                   0                   0
#                G_2           SIGMA_Y_2                BB_2                 N_2
                   0                   0                   0                   0
#               CC_2     EPSILON_DOT_0_2
                   0                   0
#               CM_2                T_20             T_2MELT            T_2LIMIT             RHOCV_2
                   0                   0                   0                   0                   0
#      EPSILON_MAX_2         SIGMA_MAX_2               K_A_2               K_B_2
                   0                   0                   0                   0
#            ALPHA_3             RHO_0_3               E_0_3             P_MIN_3               C_0_3
                   0                   0                   0                   0                   0
#              C_1_3               C_2_3               C_3_3               C_4_3               C_5_3
                   0                   0                   0                   0                   0
#                G_3           SIGMA_Y_3                BB_3                 N_3
                   0                   0                   0                   0
#               CC_3     EPSILON_DOT_0_3
                   0                   0
#               CM_3                T_30             T_3MELT            T_3LIMIT             RHOCV_3
                   0                   0                   0                   0                   0
#      EPSILON_MAX_3         SIGMA_MAX_3               K_A_3               K_B_3
                   0                   0                   0                   0
#            ALPHA_4             RHO_0_4               E_0_4             P_MIN_4               C_0_4
                 0.5               1.204              250000                   0                   0
#                B_1                 B_2                 R_1                 R_2                   W
               1E-30               1E-30                   1                   1                  .4
#                  D                P_CJ                C_14
                .693                 .21                 .07
/ALE/MAT/1
#     Modif. factor.
                   0
#---1----|----2----|----3----|----4----|----5----|----6----|----7----|----8----|----9----|---10----|
#-  3. NODES:
#---1----|----2----|----3----|----4----|----5----|----6----|----7----|----8----|----9----|---10----|
/NODE
         1                   0                   0                   0
         2                   0                  10                   0
         3                  10                  10                   0
         4                  10                   0                   0
         5                   0                  10                  10
         6                  10                  10                  10
         7                  10                   0                  10
         8                   0                   0                  10
#---1----|----2----|----3----|----4----|----5----|----6----|----7----|----8----|----9----|---10----|
#-  4. BOUNDARY CONDITIONS:
#---1----|----2----|----3----|----4----|----5----|----6----|----7----|----8----|----9----|---10----|
/BCS/1
lagrangiens
#   trarot   Skew_id   Gnod_id
   000 000         0         1
/ALE/BCS/1
#   trarot   Skew_id   Gnod_id
lagrangiens
   000 111         0         1
/GRNOD/NODE/1
brick_nodes
         1         2         3         4         5         6         7         8
#---1----|----2----|----3----|----4----|----5----|----6----|----7----|----8----|----9----|---10----|
#-  5. PARTS:
#---1----|----2----|----3----|----4----|----5----|----6----|----7----|----8----|----9----|---10----|
/PART/1
BRICK
         1         1         0
#---1----|----2----|----3----|----4----|----5----|----6----|----7----|----8----|----9----|---10----|
# BRICK elements of /PART/1/BRICK:
#---1----|----2----|----3----|----4----|----5----|----6----|----7----|----8----|----9----|---10----|
/BRICK/1
         2         2         1         4         3         5         8         7         6
#---1----|----2----|----3----|----4----|----5----|----6----|----7----|----8----|----9----|---10----|
#-  6. SUBSETS:
#---1----|----2----|----3----|----4----|----5----|----6----|----7----|----8----|----9----|---10----|
/SUBSET/4
VOID_SPRING
#---1----|----2----|----3----|----4----|----5----|----6----|----7----|----8----|----9----|---10----|
#-  7. GEOMETRICAL SETS:
#---1----|----2----|----3----|----4----|----5----|----6----|----7----|----8----|----9----|---10----|
/PROP/SOLID/1
prop_fluid
#   Isolid    Ismstr               Icpre               Inpts      Irot    Iframe                  dn
         0         0                   0                   0         0         0                   0
#                q_a                 q_b                   h
                   0                   0                   0
#             dt_min   istrain
                   0         0
#---1----|----2----|----3----|----4----|----5----|----6----|----7----|----8----|----9----|---10----|
#-  8. FUNCTIONS:
#---1----|----2----|----3----|----4----|----5----|----6----|----7----|----8----|----9----|---10----|
/FUNCT/1
dilatation_compression
#                  X                   Y
                   0                   0                                                            
                 100                  10                                                            
                 200                   0                                                            
                 225                -2.5                                                            
#---1----|----2----|----3----|----4----|----5----|----6----|----7----|----8----|----9----|---10----|
/FUNCT/10
compression_dilatation
#                  X                   Y
                   0                   0                                                            
                  25                -2.5                                                            
                  50                   0                                                            
                 150                  10                                                            
#---1----|----2----|----3----|----4----|----5----|----6----|----7----|----8----|----9----|---10----|
#-  9. IMPOSED DISPLACEMENTS:
#---1----|----2----|----3----|----4----|----5----|----6----|----7----|----8----|----9----|---10----|
/IMPDISP/2
FaceX+
#   Ifunct       DIR     Iskew   Isensor   Gnod_id     Frame
         1         X         0         0         2         0
#            Scale_x             Scale_y              Tstart               Tstop
                   0                   0                   0                   0
/GRNOD/NODE/2
IMPDISP_group_2_of_NODE
         3         4         6         7
#---1----|----2----|----3----|----4----|----5----|----6----|----7----|----8----|----9----|---10----|
/IMPDISP/3
FaceX-
#   Ifunct       DIR     Iskew   Isensor   Gnod_id     Frame
         1         X         0         0         3         0
#            Scale_x             Scale_y              Tstart               Tstop
                   0                  -1                   0                   0
/GRNOD/NODE/3
IMPDISP_group_3_of_NODE
         1         2         5         8
#---1----|----2----|----3----|----4----|----5----|----6----|----7----|----8----|----9----|---10----|
/IMPDISP/4
FaceZ+
#   Ifunct       DIR     Iskew   Isensor   Gnod_id     Frame
         1         Z         0         0         4         0
#            Scale_x             Scale_y              Tstart               Tstop
                   0                   1                   0                   0
/GRNOD/NODE/4
IMPDISP_group_4_of_NODE
         5         6         7         8
#---1----|----2----|----3----|----4----|----5----|----6----|----7----|----8----|----9----|---10----|
/IMPDISP/5
FaceZ-
#   Ifunct       DIR     Iskew   Isensor   Gnod_id     Frame
         1         Z         0         0         5         0
#            Scale_x             Scale_y              Tstart               Tstop
                   0                  -1                   0                   0
/GRNOD/NODE/5
IMPDISP_group_5_of_NODE
         1         2         3         4
#---1----|----2----|----3----|----4----|----5----|----6----|----7----|----8----|----9----|---10----|
/IMPDISP/6
FaceY+
#   Ifunct       DIR     Iskew   Isensor   Gnod_id     Frame
         1         Y         0         0         6         0
#            Scale_x             Scale_y              Tstart               Tstop
                   0                   1                   0                   0
/GRNOD/NODE/6
IMPDISP_group_6_of_NODE
         2         3         5         6
#---1----|----2----|----3----|----4----|----5----|----6----|----7----|----8----|----9----|---10----|
/IMPDISP/7
FaceY-
#   Ifunct       DIR     Iskew   Isensor   Gnod_id     Frame
         1         Y         0         0         7         0
#            Scale_x             Scale_y              Tstart               Tstop
                   0                  -1                   0                   0
/GRNOD/NODE/7
IMPDISP_group_7_of_NODE
         1         4         7         8
#---1----|----2----|----3----|----4----|----5----|----6----|----7----|----8----|----9----|---10----|
#- 10. POINT DETONATORS:
#---1----|----2----|----3----|----4----|----5----|----6----|----7----|----8----|----9----|---10----|
/DFS/DETPOIN/1
#               Xdet                Ydet                Zdet                Tdet      Mdet
                   5                   5                   5               -1E30         0
#---1----|----2----|----3----|----4----|----5----|----6----|----7----|----8----|----9----|---10----|
#- 11. TIME HISTORIES:
#---1----|----2----|----3----|----4----|----5----|----6----|----7----|----8----|----9----|---10----|
/TH/BRIC/1
brick
#     var1      var2      var3      var4      var5      var6      var7      var8      var9     var10
DEF       BFRAC       
#    NODid                                                     NODname
         2          brick_2                                                                         
#---1----|----2----|----3----|----4----|----5----|----6----|----7----|----8----|----9----|---10----|
/TH/NODE/3
REF_NODES
#     var1      var2      var3      var4      var5      var6      var7      var8      var9     var10
DEF       XYZ       
#    NODid     Iskew                                           NODname
         1         0REF_NODES_1                                                                     
         4         0REF_NODES_4                                                                     
#---1----|----2----|----3----|----4----|----5----|----6----|----7----|----8----|----9----|---10----|
#include qadiags.inc
/END
#---1----|----2----|----3----|----4----|----5----|----6----|----7----|----8----|----9----|---10----|
