#RADIOSS STARTER
# Copyright (C) 2024 Altair Engineering Inc. ("Holder")
# Model is licensed by Holder under CC BY-NC 4.0
# (https://creativecommons.org/licenses/by-nc/4.0/legalcode).
# Copyright (C) 2022 Altair Engineering Inc. ("Holder")
# Model is licensed by Holder under CC BY-NC 4.0
# (https://creativecommons.org/licenses/by-nc/4.0/legalcode).
#--------------------------------------------------------------------------------------------------|
#- RADIOSS DECK WRITTEN BY HyperCrash
#HyperCrash 2019.1 (64 bits) 
#Wed Mar 25 16:37:33 2020
#-
#--1---|---2---|---3---|---4---|---5---|---6---|---7---|---8---|---9---|--10---|
#
#-
#- DATE	Wed Mar 25 16:37:33 2020
#--------------------------------------------------------------------------------------------------|
#---1----|----2----|----3----|----4----|----5----|----6----|----7----|----8----|----9----|---10----|
/BEGIN
IDEL8                                                                           
      2019         0
                  kg                  mm                   s
                  kg                  mm                   s
#---1----|----2----|----3----|----4----|----5----|----6----|----7----|----8----|----9----|---10----|
#-  1. CONTROL CARDS:
#---1----|----2----|----3----|----4----|----5----|----6----|----7----|----8----|----9----|---10----|
/TITLE
IDEL7
#---1----|----2----|----3----|----4----|----5----|----6----|----7----|----8----|----9----|---10----|
#include qadiags.inc
#---1----|----2----|----3----|----4----|----5----|----6----|----7----|----8----|----9----|---10----|
/RANDOM
#       Random-Noise                Seed
                   0                   0
#---1----|----2----|----3----|----4----|----5----|----6----|----7----|----8----|----9----|---10----|
/SPMD
#   DOMDEC     Nproc              Dkword             Nthread
         0         2                   0                   0
#---1----|----2----|----3----|----4----|----5----|----6----|----7----|----8----|----9----|---10----|
/IOFLAG
#     IPRI                         IOUTP    IOUTYY   IROOTYY     IDROT
         0                             1         0         0         0
#---1----|----2----|----3----|----4----|----5----|----6----|----7----|----8----|----9----|---10----|
/ANALY
#    N2D3D             IPARITH      ISUB
         0                   1         0
#---1----|----2----|----3----|----4----|----5----|----6----|----7----|----8----|----9----|---10----|
/DEF_SOLID
#  I_SOLID    ISMSTR             ISTRAIN                                  IFRAME
         2         2                   0                                       0
#---1----|----2----|----3----|----4----|----5----|----6----|----7----|----8----|----9----|---10----|
/DEF_SHELL
#   ISHELL    ISMSTR    ITHICK     IPLAS   ISTRAIN                        I_SH3N     IDRIL
         1         2         2         2         1                             0         0
#---1----|----2----|----3----|----4----|----5----|----6----|----7----|----8----|----9----|---10----|
#-  2. MATERIALS:
#---1----|----2----|----3----|----4----|----5----|----6----|----7----|----8----|----9----|---10----|
/MAT/LAW01/1
Elastic
#        Init. dens.          Ref. dens.
                1E-9                   0
#                  E                  nu
                1000                 .34
#---1----|----2----|----3----|----4----|----5----|----6----|----7----|----8----|----9----|---10----|
/MAT/PLAS_JOHNS/2
Plastic
#              RHO_I
               3E-10                   0
#                  E                  Nu     Iflag
                  10                 .35         0
#                  a                   b                   n           EPS_p_max            SIG_max0
                  .1                  .2                   1                1E31                1E31
#                  c           EPS_DOT_0       ICC   Fsmooth               F_cut               Chard
                   0                   0         0         0                   0                   0
#                  m              T_melt              rhoC_p                 T_r
                   0                   0                   0                   0
#---1----|----2----|----3----|----4----|----5----|----6----|----7----|----8----|----9----|---10----|
#-  3. NODES:
#---1----|----2----|----3----|----4----|----5----|----6----|----7----|----8----|----9----|---10----|
/NODE
         1              1466.4             -389.95              514.81
         2              1482.2             -389.95              551.67
         3              1483.3             -344.95              550.99
         4              1467.6             -344.95              514.12
         5                1461             -388.65              515.49
         6              1476.8              -388.6              553.91
         7              1476.7             -344.95              553.92
         8              1460.9             -344.95              515.52
         9              1497.9             -389.95              588.54
        10              1499.1             -344.95              587.85
        11              1492.5              -388.6              590.77
        12              1492.5             -344.95              590.79
        13              1513.7             -389.95               625.4
        14              1514.9             -344.95              624.71
        15              1508.3             -388.59              627.63
        16              1508.3             -344.95              627.65
        17              1528.2             -389.95              661.71
        18              1530.7             -344.95              661.57
        19              1525.1             -388.67              666.94
        20              1525.7             -344.95               666.6
# ... 430 like lines cut
#---1----|----2----|----3----|----4----|----5----|----6----|----7----|----8----|----9----|---10----|
#-  4. PARTS:
#---1----|----2----|----3----|----4----|----5----|----6----|----7----|----8----|----9----|---10----|
/PART/1
Part_1
         1         1         1
#---1----|----2----|----3----|----4----|----5----|----6----|----7----|----8----|----9----|---10----|
/BRICK/1
         1         1         2         3         4         5         6         7         8
         2         2         9        10         3         6        11        12         7
         3         9        13        14        10        11        15        16        12
         4        13        17        18        14        15        19        20        16
         5        21        22        23        24        25        26        27        28
         6        25        26        27        28        29        30        31        32
         7        29        30        31        32        33        34        35        36
         8        33        34        35        36        37        38        39        40
         9        17        24        23        19        13        28        27        15
        10        13        28        27        15         9        32        31        11
        11         9        32        31        11         2        36        35         6
        12         2        36        35         6         1        40        39         5
        13        41         4         3        42        43         8         7        44
        14        42         3        10        45        44         7        12        46
        15        45        10        14        47        46        12        16        48
        16        47        14        18        49        48        16        20        50
        17        51        52        53        54        55        56        57        58
        18        55        56        57        58        59        60        61        62
        19        59        60        61        62        63        64        65        66
        20        63        64        65        66        67        68        69        70
# ... 4 like lines cut
#---1----|----2----|----3----|----4----|----5----|----6----|----7----|----8----|----9----|---10----|
/PART/2
Part_2
         2         2         2
#---1----|----2----|----3----|----4----|----5----|----6----|----7----|----8----|----9----|---10----|
/SH3N/2
       356       409       410       109
       357       107       408       407
       358       396       122       394
       359       331       113       333
       360       301       302       173
       361       298       299       176
       362       253       131       255
       363       212        84       210
#---1----|----2----|----3----|----4----|----5----|----6----|----7----|----8----|----9----|---10----|
/SHELL/2
        25        71        72        73        74
        26        75        76        77        78
        27        78        77        79        80
        28        80        79        81        72
        29        72        81        82        73
        30        73        82        83        84
        31        84        83        85        86
        32        86        85        87        88
        33        76        89        90        77
        34        77        90        91        79
        35        79        91        92        81
        36        81        92        93        82
        37        82        93        94        83
        38        83        94        95        85
        39        85        95        96        87
        40        97        98        99       100
        41       101       102       103       104
        42       100        99       105       106
        43       107       106       105       108
        44       109       107       108       110
# ... 330 like lines cut
#---1----|----2----|----3----|----4----|----5----|----6----|----7----|----8----|----9----|---10----|
#-  5. SUBSETS:
#---1----|----2----|----3----|----4----|----5----|----6----|----7----|----8----|----9----|---10----|
/SUBSET/1
Subset 1
#---1----|----2----|----3----|----4----|----5----|----6----|----7----|----8----|----9----|---10----|
/SUBSET/2
Subset 2
#---1----|----2----|----3----|----4----|----5----|----6----|----7----|----8----|----9----|---10----|
#-  6. GEOMETRICAL SETS:
#---1----|----2----|----3----|----4----|----5----|----6----|----7----|----8----|----9----|---10----|
/PROP/SOLID/1
Solid
#   Isolid    Ismstr               Icpre               Inpts    Itetra    Iframe                  dn
         2         2                   0                   0         0         1                   0
#                q_a                 q_b                   h            LAMBDA_V                MU_V
                 1.1                 .05                  .1                   0                   0
#             dt_min   istrain      IHKT
                   0         0         0
#---1----|----2----|----3----|----4----|----5----|----6----|----7----|----8----|----9----|---10----|
/PROP/SHELL/2
Shell
#   Ishell    Ismstr     Ish3n    Idrill                            P_thick_fail
         3         2         0         0                                       0
#                 hm                  hf                  hr                  dm                  dn
                  .5                  .5                  .5                   0                   0
#        N   Istrain               Thick              Ashear              Ithick     Iplas
         0         0                   3                   0                   0         0
#---1----|----2----|----3----|----4----|----5----|----6----|----7----|----8----|----9----|---10----|
#-  7. FUNCTIONS:
#---1----|----2----|----3----|----4----|----5----|----6----|----7----|----8----|----9----|---10----|
/FUNCT/1
Function 1
#                  X                   Y
                -300               -1000
                   0                   0
                  .3                   1
                   1                   1
                1.31                   0
                1000                   0
#---1----|----2----|----3----|----4----|----5----|----6----|----7----|----8----|----9----|---10----|
/FUNCT/2
Function 2
#                  X                   Y
               -1000                   0
               -1.31                   0
                  -1                  -1
                 -.3                  -1
                   0                   0
                  .3                   1
                   1                   1
                1.31                   0
                1000                   0
#---1----|----2----|----3----|----4----|----5----|----6----|----7----|----8----|----9----|---10----|
#-  8. INITIAL VELOCITIES:
#---1----|----2----|----3----|----4----|----5----|----6----|----7----|----8----|----9----|---10----|
/INIVEL/TRA/1
Velocity
#                 Vx                  Vy                  Vz   Gnod_id   Skew_id
                1000                   0                   0         1         0
/GRNOD/NODE/1
Velocity
       450
#---1----|----2----|----3----|----4----|----5----|----6----|----7----|----8----|----9----|---10----|
#-  9. INTERFACES:
#---1----|----2----|----3----|----4----|----5----|----6----|----7----|----8----|----9----|---10----|
/INTER/TYPE7/1
Contact 1
#  Slav_id   Mast_id      Istf      Ithe      Igap                Ibag      Idel     Icurv      Iadm
         2         1         0         0         0                   0         2         0         0
#          Fscalegap             Gap_max             Fpenmax
                   0                   0                   0
#              Stmin               Stmax          %mesh_size               dtmin  Irem_gap   Irem_i2
                   0                   0                   0                   0         0         0
#              Stfac                Fric              Gapmin              Tstart               Tstop
                 .01                  .1                 1.5                   0                   0
#      IBC                        Inacti                VisS                VisF              Bumult
       000                             1                 .05                   1                   0
#    Ifric    Ifiltr               Xfreq     Iform   sens_ID   fct_IDf             AscaleF   fric_ID
         0         0                   0         0         0         0                   0         0
/GRNOD/NODE/2
Contact 1
        71        72        73        74        75        76        77        78        79        80
        81        82        83        84        85        86        87        88        89        90
        91        92        93        94        95        96        97        98        99       100
       101       102       103       104       105       106       107       108       109       110
       111       112       113       114       115       116       117       118       119       120
       121       122       123       124       125       126       127       128       129       130
       131       132       133       134       135       136       137       138       139       140
       141       142       143       144       145       146       147       148       149       150
       151       152       153       154       155       156       157       158       159       160
       161       162       163       164       165       166       167       168       169       170
       171       172       173       174       175       176       177       178       179       180
       181       182       183       184       185       186       187       188       189       190
       191       192       193       194       195       196       197       198       199       200
       201       202       203       204       205       206       207       208       209       210
       211       212       213       214       215       216       217       218       219       220
       221       222       223       224       225       226       227       228       229       230
       231       232       233       234       235       236       237       238       239       240
       241       242       243       244       245       246       247       248       249       250
       251       252       253       254       255       256       257       258       259       260
       261       262       263       264       265       266       267       268       269       270
# ... 18 like lines cut
/SURF/SEG/1
Contact 1
         1         1         4         3         2
         2         2        36        40         1
         3         1         5         8         4
         4         1        40        39         5
         5         2         3        10         9
         6         9        32        36         2
         7        41        42         3         4
         8        42        45        10         3
         9        41         4         8        43
        10        35         6         5        39
        11        31        11         6        35
        12         9        10        14        13
        13        13        28        32         9
        14        45        47        14        10
        15        27        15        11        31
        16        13        14        18        17
        17        17        24        28        13
        18        47        49        18        14
        19        23        19        15        27
        20        17        18        20        19
# ... 40 like lines cut
#---1----|----2----|----3----|----4----|----5----|----6----|----7----|----8----|----9----|---10----|
/INTER/TYPE7/2
Contact 2
#  Slav_id   Mast_id      Istf      Ithe      Igap                Ibag      Idel     Icurv      Iadm
         3         2         0         0         0                   0         2         0         0
#          Fscalegap             Gap_max             Fpenmax
                   0                   0                   0
#              Stmin               Stmax          %mesh_size               dtmin  Irem_gap   Irem_i2
                   0                   0                   0                   0         0         0
#              Stfac                Fric              Gapmin              Tstart               Tstop
                   1                  .1                 1.5                   0                   0
#      IBC                        Inacti                VisS                VisF              Bumult
       000                             1                 .05                   1                   0
#    Ifric    Ifiltr               Xfreq     Iform   sens_ID   fct_IDf             AscaleF   fric_ID
         0         0                   0         0         0         0                   0         0
/GRNOD/NODE/3
Contact 2
         1         2         3         4         5         6         8         9        10        11
        13        14        15        17        18        19        20        21        22        23
        24        25        26        27        28        29        30        31        32        33
        34        35        36        37        38        39        40        41        42        43
        44        45        46        47        48        49        50        51        52        53
        54        55        56        57        58        59        60        61        62        63
        64        65        66        67        68        69        70
/SURF/SEG/2
Contact 2
        61        71        72        73        74
        62       113        80        72        71
        63        74       310       332        71
        64       332       333       113        71
        65        72        81        82        73
        66        80        79        81        72
        67        74        73        84       212
        68        73        82        83        84
        69       212       211       310        74
        70        75        76        77        78
        71        76        75       141       140
        72       115        75        78       114
        73        75       115       153       141
        74        76        89        90        77
        75       140       169        89        76
        76        78        77        79        80
        77        77        90        91        79
        78       114        78        80       113
        79        79        91        92        81
        80        81        92        93        82
# ... 338 like lines cut
#---1----|----2----|----3----|----4----|----5----|----6----|----7----|----8----|----9----|---10----|
#- 10. RIGID BODIES:
#---1----|----2----|----3----|----4----|----5----|----6----|----7----|----8----|----9----|---10----|
/RBODY/1
BACKPLATE
#     RBID     ISENS     NSKEW    ISPHER                MASS   Gnod_id     IKREM      ICOG   Surf_id
       450         0         0         0                   0         4         1         1         0
#                Jxx                 Jyy                 Jzz
                   0                   0                   0
#                Jxy                 Jyz                 Jxz
                   0                   0                   0
#  Ioptoff   Iexpams
         0         0
/GRNOD/NODE/4
BACKPLATE
         1         2         3         4         5         6         7         8         9        10
        11        12        13        14        15        16        17        18        19        20
        21        22        23        24        25        26        27        28        29        30
        31        32        33        34        35        36        37        38        39        40
        41        42        43        44        45        46        47        48        49        50
        51        52        53        54        55        56        57        58        59        60
        61        62        63        64        65        66        67        68        69        70
#---1----|----2----|----3----|----4----|----5----|----6----|----7----|----8----|----9----|---10----|
#- 11. TIME HISTORIES:
#---1----|----2----|----3----|----4----|----5----|----6----|----7----|----8----|----9----|---10----|
/TH/SUBS/1
Subsets
#     var1      var2      var3      var4      var5      var6      var7      var8      var9     var10
DEF       
#     Obj1      Obj2      Obj3      Obj4      Obj5      Obj6      Obj7      Obj8      Obj9     Obj10
         1         2
#---1----|----2----|----3----|----4----|----5----|----6----|----7----|----8----|----9----|---10----|
/TH/INTER/2
Interfaces
#     var1      var2      var3      var4      var5      var6      var7      var8      var9     var10
DEF       
#     Obj1      Obj2      Obj3      Obj4      Obj5      Obj6      Obj7      Obj8      Obj9     Obj10
         1         2
#---1----|----2----|----3----|----4----|----5----|----6----|----7----|----8----|----9----|---10----|
/TH/PART/3
Parts
#     var1      var2      var3      var4      var5      var6      var7      var8      var9     var10
DEF       
#     Obj1      Obj2      Obj3      Obj4      Obj5      Obj6      Obj7      Obj8      Obj9     Obj10
         1         2
#---1----|----2----|----3----|----4----|----5----|----6----|----7----|----8----|----9----|---10----|
/END
#---1----|----2----|----3----|----4----|----5----|----6----|----7----|----8----|----9----|---10----|
