# RADIOSS 
# Copyright (C) 2022 Altair Engineering Inc. ("Holder")
# Model is licensed by Holder under CC BY-NC 4.0
# (https://creativecommons.org/licenses/by-nc/4.0/legalcode).
#---1----|----2----|----3----|----4----|----5----|----6----|----7----|----8----|----9----|---10----|
/RUN/CRA2AV4/1
20.0
#
/ANIM/DT
0.0 2.0
/ANIM/VECT/VEL
/ANIM/VECT/CONT
/ANIM/VECT/FINT
/ANIM/VECT/FEXT
/ANIM/VECT/FOPT
/ANIM/ELEM/EPSP
/ANIM/ELEM/ENER
/ANIM/NODA/DT
/ANIM/NODA/DMAS
/ANIM/TENS/STRESS/MEMB
/ANIM/TENS/STRAIN/UPPER
/ANIM/MASS
#
/TFILE
0.05
#
/PRINT/-100
#
/END/ENGINE
#
#---1----|----2----|----3----|----4----|----5----|----6----|----7----|----8----|----9----|---10----|
#---1----|----2----|----3----|----4----|----5----|----6----|----7----|----8----|----9----|---10----|
/BEGIN
CRA2AV4                                                                         
      2022         0
                   g                  mm                  ms
                   g                  mm                  ms
#---1----|----2----|----3----|----4----|----5----|----6----|----7----|----8----|----9----|---10----|
#-  2. CONTROL CARDS:
#---1----|----2----|----3----|----4----|----5----|----6----|----7----|----8----|----9----|---10----|
/TITLE
CRA2V21
#---1----|----2----|----3----|----4----|----5----|----6----|----7----|----8----|----9----|---10----|
/ANALY
#    N2D3D             IPARITH      ISUB
         0                   0         0
#---1----|----2----|----3----|----4----|----5----|----6----|----7----|----8----|----9----|---10----|
/DEF_SHELL
#   ISHELL    ISMSTR    ITHICK     IPLAS   ISTRAIN                        I_SH3N     IDRIL
         0         0         0         0         0                             1         0
#---1----|----2----|----3----|----4----|----5----|----6----|----7----|----8----|----9----|---10----|
/DEF_SOLID
#  I_SOLID    ISMSTR     ICPRE             ITETRA4  ITETRA10      IMAS    IFRAME
         0         0         0                   0         0         0         0
#---1----|----2----|----3----|----4----|----5----|----6----|----7----|----8----|----9----|---10----|
/IOFLAG
#     IPRI                         IOUTP    IOUTYY   IROOTYY     IDROT
         0                             0         0         0         0
#---1----|----2----|----3----|----4----|----5----|----6----|----7----|----8----|----9----|---10----|
/RANDOM
#       Random-Noise                Seed
                   0                   0
#---1----|----2----|----3----|----4----|----5----|----6----|----7----|----8----|----9----|---10----|
/SHFRA/V4
#---1----|----2----|----3----|----4----|----5----|----6----|----7----|----8----|----9----|---10----|
#-  3. MATERIALS:
#---1----|----2----|----3----|----4----|----5----|----6----|----7----|----8----|----9----|---10----|
/MAT/PLAS_JOHNS/1
ACIER
#              RHO_I
               .0079                   0
#                  E                  Nu     Iflag
              199355                  .3         0
#                  a                   b                   n           EPS_p_max            SIG_max0
               185.4                 540                 .32                   0               336.6
#                  c           EPS_DOT_0       ICC   Fsmooth               F_cut               Chard
                   0                   0         0         0                   0                   0
#                  m              T_melt              rhoC_p                 T_r
                   0                   0                   0                   0
#---1----|----2----|----3----|----4----|----5----|----6----|----7----|----8----|----9----|---10----|
/MAT/PLAS_JOHNS/2
ACIER
#              RHO_I
               .0079                   0
#                  E                  Nu     Iflag
              199355                  .3         0
#                  a                   b                   n           EPS_p_max            SIG_max0
               185.4                 540                 .32                   0               336.6
#                  c           EPS_DOT_0       ICC   Fsmooth               F_cut               Chard
                   0                   0         0         0                   0                   0
#                  m              T_melt              rhoC_p                 T_r
                   0                   0                   0                   0
#---1----|----2----|----3----|----4----|----5----|----6----|----7----|----8----|----9----|---10----|
/MAT/PLAS_JOHNS/3
ACIER
#              RHO_I
               .0079                   0
#                  E                  Nu     Iflag
              199355                  .3         0
#                  a                   b                   n           EPS_p_max            SIG_max0
               185.4                 540                 .32                   0               336.6
#                  c           EPS_DOT_0       ICC   Fsmooth               F_cut               Chard
                   0                   0         0         0                   0                   0
#                  m              T_melt              rhoC_p                 T_r
                   0                   0                   0                   0
#---1----|----2----|----3----|----4----|----5----|----6----|----7----|----8----|----9----|---10----|
#-  4. NODES:
#---1----|----2----|----3----|----4----|----5----|----6----|----7----|----8----|----9----|---10----|
/NODE
         1                   0                  80                   0
         2                  10                  80                   0
         3                  20                  80                   0
         4                  30                  80                   0
         5                  40                  80                   0
         6                  50                  80                   0
         7                  60                  80                   0
         8                  70                  80                   0
         9                  80                  80                   0
        10                  90                  80                   0
        11                 100                  80                   0
        12                 110                  80                   0
        13                 120                  80                   0
        14                 130                  80                   0
        15                 140                  80                   0
        16                 150                  80                   0
        17                 160                  80                   0
        18                 170                  75                   0
        19                 180                  70                   0
        20                 190                  65                   0
# ... 831 like lines cut
#---1----|----2----|----3----|----4----|----5----|----6----|----7----|----8----|----9----|---10----|
#-  5. BOUNDARY CONDITIONS:
#---1----|----2----|----3----|----4----|----5----|----6----|----7----|----8----|----9----|---10----|
/BCS/1
CRA2V21D00_bcs2_001_110
#  Tra rot   skew_ID  grnod_ID
   001 110         0         2
/GRNOD/NODE/2
CRA2V21D00_bcs2_001_110
         2         3         4         5         6         7         8         9        10        11
        12        13        14        15        16        17        18        19        20        21
        22        23        24        25        26        27        28        29        30        31
        32        33        34        35        36        37        38        39        40        41
        42        43        44        45        46        47        48       802       803       804
       805       806       807       808       809       810       811       812       813       814
       815       816       817       818       819       820       821       822       823       824
       825       826       827       828       829       830       831       832       833       834
       835       836       837       838       839       840       841       842       843       844
       845       846       847       848
#---1----|----2----|----3----|----4----|----5----|----6----|----7----|----8----|----9----|---10----|
/BCS/2
rby
#  Tra rot   skew_ID  grnod_ID
   011 111         0         5
/GRNOD/GRNOD/5
GRNOD 5
         3         4
/GRNOD/NODE/3
rby
       851
/GRNOD/NODE/4
rby_master
       851
#---1----|----2----|----3----|----4----|----5----|----6----|----7----|----8----|----9----|---10----|
#-  6. PARTS:
#---1----|----2----|----3----|----4----|----5----|----6----|----7----|----8----|----9----|---10----|
/PART/1
PID 1
         1         1         0
#---1----|----2----|----3----|----4----|----5----|----6----|----7----|----8----|----9----|---10----|
# SHELL elements of /PART/1/PID 1:
#---1----|----2----|----3----|----4----|----5----|----6----|----7----|----8----|----9----|---10----|
/SHELL/1
         1         1         2        52        51
         2         2         3        53        52
         3         3         4        54        53
         4         4         5        55        54
         5         5         6        56        55
         6         6         7        57        56
         7         7         8        58        57
         8         8         9        59        58
         9         9        10        60        59
        10        10        11        61        60
        11        11        12        62        61
        12        12        13        63        62
        13        13        14        64        63
        14        14        15        65        64
        15        15        16        66        65
        16        16        17        67        66
        17        17        18        68        67
        18        18        19        69        68
        19        19        20        70        69
        20        20        21        71        70
# ... 172 like lines cut
#---1----|----2----|----3----|----4----|----5----|----6----|----7----|----8----|----9----|---10----|
/PART/2
PID 2
         2         2         0
#---1----|----2----|----3----|----4----|----5----|----6----|----7----|----8----|----9----|---10----|
# SHELL elements of /PART/2/PID 2:
#---1----|----2----|----3----|----4----|----5----|----6----|----7----|----8----|----9----|---10----|
/SHELL/2
       193       201       202       252       251
       194       202       203       253       252
       195       203       204       254       253
       196       204       205       255       254
       197       205       206       256       255
       198       206       207       257       256
       199       207       208       258       257
       200       208       209       259       258
       201       209       210       260       259
       202       210       211       261       260
       203       211       212       262       261
       204       212       213       263       262
       205       213       214       264       263
       206       214       215       265       264
       207       215       216       266       265
       208       216       217       267       266
       209       217       218       268       267
       210       218       219       269       268
       211       219       220       270       269
       212       220       221       271       270
# ... 364 like lines cut
#---1----|----2----|----3----|----4----|----5----|----6----|----7----|----8----|----9----|---10----|
/PART/3
PID 3
         3         3         0
#---1----|----2----|----3----|----4----|----5----|----6----|----7----|----8----|----9----|---10----|
# SHELL elements of /PART/3/PID 3:
#---1----|----2----|----3----|----4----|----5----|----6----|----7----|----8----|----9----|---10----|
/SHELL/3
       577       601       602       652       651
       578       602       603       653       652
       579       603       604       654       653
       580       604       605       655       654
       581       605       606       656       655
       582       606       607       657       656
       583       607       608       658       657
       584       608       609       659       658
       585       609       610       660       659
       586       610       611       661       660
       587       611       612       662       661
       588       612       613       663       662
       589       613       614       664       663
       590       614       615       665       664
       591       615       616       666       665
       592       616       617       667       666
       593       617       618       668       667
       594       618       619       669       668
       595       619       620       670       669
       596       620       621       671       670
# ... 172 like lines cut
#---1----|----2----|----3----|----4----|----5----|----6----|----7----|----8----|----9----|---10----|
#-  7. GEOMETRICAL SETS:
#---1----|----2----|----3----|----4----|----5----|----6----|----7----|----8----|----9----|---10----|
/PROP/SHELL/1
PID 1
#   Ishell    Ismstr     Ish3n    Idrill                            P_thick_fail
         0         0         0         0                                       0
#                 hm                  hf                  hr                  dm                  dn
                 .01                 .01                1E-5                   0                   0
#        N   Istrain               Thick              Ashear              Ithick     Iplas
         0         1                 1.5                   0                   0         0
#---1----|----2----|----3----|----4----|----5----|----6----|----7----|----8----|----9----|---10----|
/PROP/SHELL/2
PID 2
#   Ishell    Ismstr     Ish3n    Idrill                            P_thick_fail
         0         0         0         0                                       0
#                 hm                  hf                  hr                  dm                  dn
                 .01                 .01                1E-5                   0                   0
#        N   Istrain               Thick              Ashear              Ithick     Iplas
         0         1                 1.5                   0                   0         0
#---1----|----2----|----3----|----4----|----5----|----6----|----7----|----8----|----9----|---10----|
/PROP/SHELL/3
PID 3
#   Ishell    Ismstr     Ish3n    Idrill                            P_thick_fail
         0         0         0         0                                       0
#                 hm                  hf                  hr                  dm                  dn
                 .01                 .01                1E-5                   0                   0
#        N   Istrain               Thick              Ashear              Ithick     Iplas
         0         1                 1.5                   0                   0         0
#---1----|----2----|----3----|----4----|----5----|----6----|----7----|----8----|----9----|---10----|
#-  8. INTERFACES:
#---1----|----2----|----3----|----4----|----5----|----6----|----7----|----8----|----9----|---10----|
/INTER/TYPE7/1
rby
# Secon_id   Main_id      Istf      Ithe      Igap                Ibag      Idel     Icurv      Iadm
         6         7         0         0         0                   0         0         0         0
#          Fscalegap             Gap_max             Fpenmax                         Itied
                   0                   0                   0                             0
#              Stmin               Stmax          %mesh_size               dtmin  Irem_gap   Irem_i2
                   0                   0                   0                   0         0         0
#              Stfac                Fric              Gapmin              Tstart               Tstop
                   0                   0                   0                   0                   0
#      IBC                        Inacti                VisS                VisF              Bumult
       000                             0                   0                   0                   0
#    Ifric    Ifiltr               Xfreq     Iform   sens_ID   fct_IDf             AscaleF   fric_ID
         0         0                   0         0         0         0                   0         0
/GRNOD/PART/6
rby_surf_1
         1         2         3
/SURF/PART/7
rby_surf_2
         1         2         3
#---1----|----2----|----3----|----4----|----5----|----6----|----7----|----8----|----9----|---10----|
#-  9. RIGID WALLS:
#---1----|----2----|----3----|----4----|----5----|----6----|----7----|----8----|----9----|---10----|
/RWALL/PARAL/850
CRA2AD00_rigid_wall_2
#  node_ID     Slide grnod_ID1 grnod_ID2
       850         0         8         0
#           D_search                fric            Diameter                ffac       ifq
                   0                   0                   0                   0         0
#               Mass                VX_0                VY_0                VZ_0
              500000                  10                   0                   0
#               X_M1                Y_M1                Z_M1
                   0                 100                   0
#               X_M2                Y_M2                Z_M2
                   0                -100                 100
/GRNOD/NODE/8
CRA2AD00_rigid_wall_2_ADD
       851
#---1----|----2----|----3----|----4----|----5----|----6----|----7----|----8----|----9----|---10----|
/RWALL/SPHER/851
CRA2AD00_rigid_wall_1
#  node_ID     Slide grnod_ID1 grnod_ID2
                   0         0         0
#           D_search                fric            Diameter                ffac       ifq
                 500                   0                 100                   0         0
#                 XM                  YM                  ZM
                 320                  80                   0
#---1----|----2----|----3----|----4----|----5----|----6----|----7----|----8----|----9----|---10----|
/RWALL/CYL/852
CRA2AD00_rigid_wall_3
#  node_ID     Slide grnod_ID1 grnod_ID2
                   0         0         0
#           D_search                fric            Diameter                ffac       ifq
                 500                   0                  80                   0         0
#                 XM                  YM                  ZM
                 400                -140                   0
#               X_M1                Y_M1                Z_M1
                 400                -140                   1
#---1----|----2----|----3----|----4----|----5----|----6----|----7----|----8----|----9----|---10----|
/RWALL/PLANE/853
CRA2AD00_rigid_wall_4
#  node_ID     Slide grnod_ID1 grnod_ID2
                   2         0         0
#           D_search                fric            Diameter                ffac       ifq
                 500                  .2                   0                   0         0
#                 XM                  YM                  ZM
                 480                   0                   0
#               X_M1                Y_M1                Z_M1
                   0                   0                   0
#---1----|----2----|----3----|----4----|----5----|----6----|----7----|----8----|----9----|---10----|
#- 10. RIGID BODIES:
#---1----|----2----|----3----|----4----|----5----|----6----|----7----|----8----|----9----|---10----|
/RBODY/851
rby
#     RBID     ISENS     NSKEW    ISPHER                MASS   Gnod_id     IKREM      ICOG   Surf_id
       851         0         0         0                   0         9         0         0         0
#                Jxx                 Jyy                 Jzz
                   0                   0                   0
#                Jxy                 Jyz                 Jxz
                   0                   0                   0
#  Ioptoff               Ifail
         0         0         0
/GRNOD/NODE/9
rby_slave
         1        50        51       100       101       150       151       200       201       250
       251       300       301       350       351       400       401       450       451       500
       501       550       551       600       601       650       651       700       701       750
       751       800       801
#---1----|----2----|----3----|----4----|----5----|----6----|----7----|----8----|----9----|---10----|
#- 11. SECTIONS:
#---1----|----2----|----3----|----4----|----5----|----6----|----7----|----8----|----9----|---10----|
/SECT/1
CRA2AD00_section_1
# node_ID1  node_ID2  node_ID3  grnod_ID    I_SAVE  Frame_ID                  Dt               alpha
        13       813       413        10         0         0                   0                   0
# File name
                                                                                                    
# grbricID           grshel_ID  grrus_ID grbeam_ID grsprinID grtrianID    Ninter              Iframe
         0                  11         0         0         0         0         0                   0
/GRNOD/NODE/10
CRA2AD00_section_1_node
        13        63       113       163       213       263       313       363       413       463
       513       563       613       663       713       763       813
/GRSHEL/SHEL/11
CRA2AD00_section_1_elem4N
        12        60       108       156       204       252       300       348       396       444
       492       540       588       636       684       732
#---1----|----2----|----3----|----4----|----5----|----6----|----7----|----8----|----9----|---10----|
#- 12. TIME HISTORIES:
#---1----|----2----|----3----|----4----|----5----|----6----|----7----|----8----|----9----|---10----|
/TH/PART/1
Part selection
#     var1      var2      var3      var4      var5      var6      var7      var8      var9     var10
DEF       
#     Obj1      Obj2      Obj3      Obj4      Obj5      Obj6      Obj7      Obj8      Obj9     Obj10
         1         2         3
#---1----|----2----|----3----|----4----|----5----|----6----|----7----|----8----|----9----|---10----|
/TH/NODE/2
CRA2AV3D00_th_nodes
#     var1      var2      var3      var4      var5      var6      var7      var8      var9     var10
DEF       
#    NODid     Iskew                                           NODname
         1         0                                                                                
        17         0                                                                                
        33         0                                                                                
#---1----|----2----|----3----|----4----|----5----|----6----|----7----|----8----|----9----|---10----|
/TH/SHEL/3
CRA2AV3D00_th_Shell
#     var1      var2      var3      var4      var5      var6      var7      var8      var9     var10
DEF       
#     Elid   Skew_ID                                            Elname
       544         0CRA2AV3D00_th_Shell                                                             
#---1----|----2----|----3----|----4----|----5----|----6----|----7----|----8----|----9----|---10----|
/TH/RWALL/4
Rigid walls
#     var1      var2      var3      var4      var5      var6      var7      var8      var9     var10
DEF       
#     Obj1      Obj2      Obj3      Obj4      Obj5      Obj6      Obj7      Obj8      Obj9     Obj10
       850       851       852       853
#---1----|----2----|----3----|----4----|----5----|----6----|----7----|----8----|----9----|---10----|
/TH/SECTIO/5
Sections
#     var1      var2      var3      var4      var5      var6      var7      var8      var9     var10
DEF       
#     Obj1      Obj2      Obj3      Obj4      Obj5      Obj6      Obj7      Obj8      Obj9     Obj10
         1
#---1----|----2----|----3----|----4----|----5----|----6----|----7----|----8----|----9----|---10----|
#include qadiags.inc
/END
#---1----|----2----|----3----|----4----|----5----|----6----|----7----|----8----|----9----|---10----|
