#RADIOSS STARTER
# Copyright (C) 2023 Altair Engineering Inc. ("Holder")
# Model is licensed by Holder under CC BY-NC 4.0
# (https://creativecommons.org/licenses/by-nc/4.0/legalcode).
# Copyright (C) 2022 Altair Engineering Inc. ("Holder")
# Model is licensed by Holder under CC BY-NC 4.0
# (https://creativecommons.org/licenses/by-nc/4.0/legalcode).
#--------------------------------------------------------------------------------------------------|
#- RADIOSS DECK WRITTEN BY HyperCrash
#HyperCrash 2019.1 (64 bits) 
#Mon Mar  9 10:29:16 2020
#-
#------------------------------------------------------------------------------|
#- RADIOSS DECK / GENERATED BY HELIOSS 3.1.c
#-
#- DATE	Thu Oct 21 11:56:08 2004
#------------------------------------------------------------------------------|
#
#-
#- DATE	Mon Mar  9 10:29:16 2020
#--------------------------------------------------------------------------------------------------|
#---1----|----2----|----3----|----4----|----5----|----6----|----7----|----8----|----9----|---10----|
/BEGIN
M50B                                                                            
      2019         0
                  kg                   m                   s
                  kg                   m                   s
#---1----|----2----|----3----|----4----|----5----|----6----|----7----|----8----|----9----|---10----|
#-  1. CONTROL CARDS:
#---1----|----2----|----3----|----4----|----5----|----6----|----7----|----8----|----9----|---10----|
/TITLE
TEST 1 ELEMENT 3D avec strain rate
#---1----|----2----|----3----|----4----|----5----|----6----|----7----|----8----|----9----|---10----|
#include qadiags.inc
#---1----|----2----|----3----|----4----|----5----|----6----|----7----|----8----|----9----|---10----|
/ANALY
#    N2D3D             IPARITH      ISUB
         0                   0         0
#---1----|----2----|----3----|----4----|----5----|----6----|----7----|----8----|----9----|---10----|
/DEF_SHELL
#   ISHELL    ISMSTR    ITHICK     IPLAS   ISTRAIN                        I_SH3N     IDRIL
         0         0         0         0         0                             1         0
#---1----|----2----|----3----|----4----|----5----|----6----|----7----|----8----|----9----|---10----|
/DEF_SOLID
#  I_SOLID    ISMSTR             ISTRAIN                                  IFRAME
         0         0                   0                                       0
#---1----|----2----|----3----|----4----|----5----|----6----|----7----|----8----|----9----|---10----|
/IOFLAG
#     IPRI               IGTYP     IOUTP    IOUTYY   IROOTYY     IDROT
         5                   0         0         0         0         0
#---1----|----2----|----3----|----4----|----5----|----6----|----7----|----8----|----9----|---10----|
/RANDOM
#       Random-Noise                Seed
                   0                   0
#---1----|----2----|----3----|----4----|----5----|----6----|----7----|----8----|----9----|---10----|
/SPMD
#   DOMDEC     Nproc              Dkword             Nthread
         0         0                   0                   1
#---1----|----2----|----3----|----4----|----5----|----6----|----7----|----8----|----9----|---10----|
/SHFRA/V4
#---1----|----2----|----3----|----4----|----5----|----6----|----7----|----8----|----9----|---10----|
#-  2. MATERIALS:
#---1----|----2----|----3----|----4----|----5----|----6----|----7----|----8----|----9----|---10----|
/MAT/LAW50/1
M50
#              RHO_I
             5.12E-8                   0
#                E11                 E22                 E33
                .019             1.38E-4             1.38E-4
#                G12                 G23                 G31
            .0075936             1.45E-4            .0075936
#             asrate
                   0
#   Iflag1           Eps_max11           Eps_max22           Eps_max33
        -1                   0                   0                   0
#funID11-1 funID11-2 funID11-3 funID11-4 funID11-5
    500005    500005         0         0         0
#        Fscale_11-1         Fscale_11-2         Fscale_11-3         Fscale_11-4         Fscale_11-5
                   0                   0                   0                   0                   0
#      Eps_rate_11-1       Eps_rate_11-2       Eps_rate_11-3       Eps_rate_11-4       Eps_rate_11-5
                   0                 100                   0                   0                   0
#funID22-1 funID22-2 funId22-3 funID22-4 funID22-5
    500004    500004         0         0         0
#        Fscale_22-1         Fscale_22-2         Fscale_22-3         Fscale_22-4         Fscale_22-5
                   0                   0                   0                   0                   0
#      Eps_rate_22-1       Eps_rate_22-2       Eps_rate_22-3       Eps_rate_22-4       Eps_rate_22-5
                   0                 100                   0                   0                   0
#funID33-1 funID33-2 funID33-3 funID33-4 funID33-5
    500004    500004         0         0         0
#        Fscale_33-1         Fscale_33-2         Fscale_33-3         Fscale_33-4         Fscale_33-5
                   0                   0                   0                   0                   0
#      Eps_rate_33-1       Eps_rate_33-2       Eps_rate_33-3       Eps_rate_33-4       Eps_rate_33-5
                   0                 100                   0                   0                   0
#   Iflag2           Eps_max12           Eps_max23           Eps_max31
        -1                   0                   0                   0
#funID12-1 funID12-2 funID12-3 funID12-4 funID12-5
    500006    500006         0         0         0
#        Fscale_12-1         Fscale_12-2         Fscale_12-3         Fscale_12-4         Fscale_12-5
                   0                   0                   0                   0                   0
#      Eps_rate_12-1       Eps_rate_12-2       Eps_rate_12-3       Eps_rate_12-4       Eps_rate_12-5
                   0                 100                   0                   0                   0
#funID23-1 funID23-2 funID23-3 funID23-4 funID23-5
    500007    500007         0         0         0
#        Fscale_23-1         Fscale_23-2         Fscale_23-3         Fscale_23-4         Fscale_23-5
                   0                   0                   0                   0                   0
#      Eps_rate_23-1       Eps_rate_23-2       Eps_rate_23-3       Eps_rate_23-4       Eps_rate_23-5
                   0                 100                   0                   0                   0
#funID31-1 funID31-2 funID31-3 funID31-4 funID31-5
    500006    500006         0         0         0
#        Fscale_31-1         Fscale_31-2         Fscale_31-3         Fscale_31-4         Fscale_31-5
                   0                   0                   0                   0                   0
#      Eps_rate_31-1       Eps_rate_31-2       Eps_rate_31-3       Eps_rate_31-4       Eps_rate_31-5
                   0                 100                   0                   0                   0
#---1----|----2----|----3----|----4----|----5----|----6----|----7----|----8----|----9----|---10----|
#-  3. NODES:
#---1----|----2----|----3----|----4----|----5----|----6----|----7----|----8----|----9----|---10----|
/NODE
         1                   0                   0                   0
         2                   0                   0                  -1
         3                   0                   1                   0
         4                   0                   1                  -1
         5                   1                   0                   0
         6                   1                   0                  -1
         7                   1                   1                   0
         8                   1                   1                  -1
#---1----|----2----|----3----|----4----|----5----|----6----|----7----|----8----|----9----|---10----|
#-  4. BOUNDARY CONDITIONS:
#---1----|----2----|----3----|----4----|----5----|----6----|----7----|----8----|----9----|---10----|
/BCS/1
M50BD00
#  Tra rot   skew_ID  grnod_ID
   111 000         0         1
/GRNOD/NODE/1
Grnod from Additional Nodes, Id          2
         1         2         5         6
#---1----|----2----|----3----|----4----|----5----|----6----|----7----|----8----|----9----|---10----|
#-  5. SKEWS & FRAMES:
#---1----|----2----|----3----|----4----|----5----|----6----|----7----|----8----|----9----|---10----|
/SKEW/FIX/1
frame for material law
#                 OX                  OY                  OZ
                   0                   0                   0
#                 X1                  Y1                  Z1
                   0                   1                   0
#                 X2                  Y2                  Z2
                   0                   0                   1
#---1----|----2----|----3----|----4----|----5----|----6----|----7----|----8----|----9----|---10----|
#-  6. PARTS:
#---1----|----2----|----3----|----4----|----5----|----6----|----7----|----8----|----9----|---10----|
/PART/1
solide pid
         1         1         0
#---1----|----2----|----3----|----4----|----5----|----6----|----7----|----8----|----9----|---10----|
# BRICK elements of /PART/1/solide pid:
#---1----|----2----|----3----|----4----|----5----|----6----|----7----|----8----|----9----|---10----|
/BRICK/1
         1         1         2         4         3         5         6         8         7
#---1----|----2----|----3----|----4----|----5----|----6----|----7----|----8----|----9----|---10----|
#-  7. GEOMETRICAL SETS:
#---1----|----2----|----3----|----4----|----5----|----6----|----7----|----8----|----9----|---10----|
/PROP/SOL_ORTH/1
solide pid
#   Isolid    Ismstr               Icpre               Inpts              Iframe                  dn
         2         2                   0                   0                   1                   0
#                q_a                 q_b                   h
                 1.1                 .05                  .1
#                 Vx                  Vy                  Vz   skew_ID        Ip     Iorth
                   0                   0                   0         0         3         0
#                phi
                   0
#             dt_min   Istrain      Ihkt
                   0         0         0
#---1----|----2----|----3----|----4----|----5----|----6----|----7----|----8----|----9----|---10----|
#-  8. FUNCTIONS:
#---1----|----2----|----3----|----4----|----5----|----6----|----7----|----8----|----9----|---10----|
/FUNCT/1
function_1
#                  X                   Y
                   0                   1
               10000                   1
#---1----|----2----|----3----|----4----|----5----|----6----|----7----|----8----|----9----|---10----|
/FUNCT/2
function_2
#                  X                   Y
                   0                  20
                  .1                  20
                 .11                  10
                  .5                  10
                  .6                  50
                 1.5                  50
#---1----|----2----|----3----|----4----|----5----|----6----|----7----|----8----|----9----|---10----|
/FUNCT/3
function_3
#                  X                   Y
                   0                  40
                  .1                  40
                 .11                  20
                  .5                  20
                  .6                 100
                 1.5                 100
#---1----|----2----|----3----|----4----|----5----|----6----|----7----|----8----|----9----|---10----|
/FUNCT/4
function_4
#                  X                   Y
                   0                  60
                  .1                  60
                 .11                  30
                  .5                  30
                  .6                 150
                 1.5                 150
#---1----|----2----|----3----|----4----|----5----|----6----|----7----|----8----|----9----|---10----|
/FUNCT/5
function_5
#                  X                   Y
                   0                  80
                  .1                  80
                 .11                  40
                  .5                  40
                  .6                 200
                 1.5                 200
#---1----|----2----|----3----|----4----|----5----|----6----|----7----|----8----|----9----|---10----|
/FUNCT/6
function_6
#                  X                   Y
                   0                 100
                  .1                 100
                 .11                  50
                  .5                  50
                  .6                 250
                 1.5                 250
#---1----|----2----|----3----|----4----|----5----|----6----|----7----|----8----|----9----|---10----|
/FUNCT/7
function_7
#                  X                   Y
                   0                 120
                  .1                 120
                 .11                  60
                  .5                  60
                  .6                 300
                 1.5                 300
#---1----|----2----|----3----|----4----|----5----|----6----|----7----|----8----|----9----|---10----|
/FUNCT/8
function_8
#                  X                   Y
                   0                 140
                  .1                 140
                 .11                  70
                  .5                  70
                  .6                 350
                 1.5                 350
#---1----|----2----|----3----|----4----|----5----|----6----|----7----|----8----|----9----|---10----|
/FUNCT/9
function_9
#                  X                   Y
                   0                 160
                  .1                 160
                 .11                  80
                  .5                  80
                  .6                 400
                 1.5                 400
#---1----|----2----|----3----|----4----|----5----|----6----|----7----|----8----|----9----|---10----|
/FUNCT/500004
function_500004
#                  X                   Y
                -100            13700000
                   0             2.56E-5
                 .12             2.56E-5
           .38000001             3.99E-5
           1.8900002             3.99E-5
                 4.6               .1373
#---1----|----2----|----3----|----4----|----5----|----6----|----7----|----8----|----9----|---10----|
/FUNCT/500005
function_500005
#                  X                   Y
                -100            13700000
                   0              3.8E-4
                 .02              3.8E-4
                .025              2.8E-4
                1.63              2.8E-4
                1.89                4E-4
                   2              7.3E-4
                2.85                .012
                 4.6               137.3
#---1----|----2----|----3----|----4----|----5----|----6----|----7----|----8----|----9----|---10----|
/FUNCT/500006
function_500006
#                  X                   Y
               -1000             5.86E-4
           -9.100002             5.86E-4
                  -9             5.86E-4
                -.25             5.86E-4
                   0             5.86E-4
                 .25             5.86E-4
                   9             5.86E-4
            9.100002             5.86E-4
                1000             5.86E-4
#---1----|----2----|----3----|----4----|----5----|----6----|----7----|----8----|----9----|---10----|
/FUNCT/500007
function_500007
#                  X                   Y
               -1000             1.45E-4
           -9.100002             1.45E-4
                  -9             1.45E-4
                -.25             1.45E-4
                   0             1.45E-4
                 .25             1.45E-4
                   9             1.45E-4
            9.100002             1.45E-4
                1000             1.45E-4
#---1----|----2----|----3----|----4----|----5----|----6----|----7----|----8----|----9----|---10----|
/FUNCT/500010
function_500010
#                  X                   Y
               -1000                -110
                 -10                -110
                   0                   0
                  10                 110
                1000                 110
#---1----|----2----|----3----|----4----|----5----|----6----|----7----|----8----|----9----|---10----|
#-  9. IMPOSED VELOCITIES:
#---1----|----2----|----3----|----4----|----5----|----6----|----7----|----8----|----9----|---10----|
/IMPVEL/1
M50BD00
#funct_IDT       Dir   skew_ID sensor_ID  grnod_ID  frame_ID     Icoor
         1         X         0         0         2         0         0
#           Ascale_x            Fscale_Y              Tstart               Tstop
                   1                -1.5                   0                   0
/GRNOD/NODE/2
Grnod from Additional Nodes, Id          3
         3         4         7         8
#---1----|----2----|----3----|----4----|----5----|----6----|----7----|----8----|----9----|---10----|
#- 10. TIME HISTORIES:
#---1----|----2----|----3----|----4----|----5----|----6----|----7----|----8----|----9----|---10----|
/TH/PART/1
Part selection
#     var1      var2      var3      var4      var5      var6      var7      var8      var9     var10
DEF       
#     Obj1      Obj2      Obj3      Obj4      Obj5      Obj6      Obj7      Obj8      Obj9     Obj10
         1
#---1----|----2----|----3----|----4----|----5----|----6----|----7----|----8----|----9----|---10----|
/TH/NODE/2
noeuds
#     var1      var2      var3      var4      var5      var6      var7      var8      var9     var10
DEF       
#    NODid     Iskew                                           NODname
         1         0                                                                                
         2         0                                                                                
         3         0                                                                                
         4         0                                                                                
         5         0                                                                                
         6         0                                                                                
         7         0                                                                                
         8         0                                                                                
#---1----|----2----|----3----|----4----|----5----|----6----|----7----|----8----|----9----|---10----|
/TH/BRIC/3
solide
#     var1      var2      var3      var4      var5      var6      var7      var8      var9     var10
DEF       
#     Elid                                                      Elname
         1          solide                                                                          
#---1----|----2----|----3----|----4----|----5----|----6----|----7----|----8----|----9----|---10----|
/END
#---1----|----2----|----3----|----4----|----5----|----6----|----7----|----8----|----9----|---10----|
