#RADIOSS STARTER
# Copyright (C) 2023 Altair Engineering Inc. ("Holder")
# Model is licensed by Holder under CC BY-NC 4.0
# (https://creativecommons.org/licenses/by-nc/4.0/legalcode).
# Copyright (C) 2022 Altair Engineering Inc. ("Holder")
# Model is licensed by Holder under CC BY-NC 4.0
# (https://creativecommons.org/licenses/by-nc/4.0/legalcode).
#--------------------------------------------------------------------------------------------------|
#- RADIOSS DECK WRITTEN BY HyperCrash
#HyperCrash 2019.1 (64 bits) 
#Wed Jan 27 15:22:06 2021
#-
#--------------------------------------------------------------------------------------------------|
#- RADIOSS DECK WRITTEN BY HyperCrash
#HyperCrash 2019.1 (64 bits)
#Wed Jan 27 15:19:07 2021
#-
# INPUT DECK / GENERATED BY  MODEDIT V4.3a
#
#DATE	Fri Oct 19 18:01:27 2001
#
#--1---|---2---|---3---|---4---|---5---|---6---|---7---|---8---|---9---|--10---|
#
#-
#- DATE	Wed Jan 27 15:19:07 2021
#--------------------------------------------------------------------------------------------------|
#---1----|----2----|----3----|----4----|----5----|----6----|----7----|----8----|----9----|---10----|
#
#-
#- DATE	Wed Jan 27 15:22:06 2021
#--------------------------------------------------------------------------------------------------|
#---1----|----2----|----3----|----4----|----5----|----6----|----7----|----8----|----9----|---10----|
/BEGIN
COMPA1B                                                                         
      2019         0
                  kg                  mm                  ms
                  kg                  mm                  ms
#---1----|----2----|----3----|----4----|----5----|----6----|----7----|----8----|----9----|---10----|
#-  1. CONTROL CARDS:
#---1----|----2----|----3----|----4----|----5----|----6----|----7----|----8----|----9----|---10----|
/TITLE
TEST INTER COMPRESSIBLE
#---1----|----2----|----3----|----4----|----5----|----6----|----7----|----8----|----9----|---10----|
#include qadiags.inc
#---1----|----2----|----3----|----4----|----5----|----6----|----7----|----8----|----9----|---10----|
/ALE/GRID/ZERO
#---1----|----2----|----3----|----4----|----5----|----6----|----7----|----8----|----9----|---10----|
/CAA
#---1----|----2----|----3----|----4----|----5----|----6----|----7----|----8----|----9----|---10----|
/DEF_SHELL
#   ISHELL    ISMSTR    ITHICK     IPLAS   ISTRAIN                        I_SH3N     IDRIL
         0         0         0         0         0                             2         0
#---1----|----2----|----3----|----4----|----5----|----6----|----7----|----8----|----9----|---10----|
/IOFLAG
#     IPRI               IGTYP     IOUTP    IOUTYY   IROOTYY     IDROT
         5                   0         0         0         0         0
#---1----|----2----|----3----|----4----|----5----|----6----|----7----|----8----|----9----|---10----|
#-  2. MATERIALS:
#---1----|----2----|----3----|----4----|----5----|----6----|----7----|----8----|----9----|---10----|
/MAT/HYD_VISC/1
EULER
#              RHO_I               RHO_0
                   1                   0
#                Knu                Pmin
                   0                   0
/ALE/MAT/1
#     Modif. factor.
                   1
/EOS/POLYNOMIAL/1
Conversion of Mat Law 6 in RADIOSS 2018 or greater
#                 C0                  C1                  C2                  C3
                   0                   1                   0                   0
#                 C4                  C5                  E0                 Psh               RHO_0
                   0                   0                   0                   0                   1
#---1----|----2----|----3----|----4----|----5----|----6----|----7----|----8----|----9----|---10----|
/MAT/BOUND/2
Frontiere
#              RHO_0
                  .5
#     Ityp                          P_sh            Fscale_T
         2                             0                   0
#                                      c
                                       0
#fun_IDRHO
         1
#funct_IDp                     Fscale_p0
         1                             0
#funct_IDE                      Fscale_E
         1                             1
# Blank card

# Blank card

# func_IDT  func_IDQ
         0         0
/ALE/MAT/2
#     Modif. factor.
                   0
#---1----|----2----|----3----|----4----|----5----|----6----|----7----|----8----|----9----|---10----|
#-  3. NODES:
#---1----|----2----|----3----|----4----|----5----|----6----|----7----|----8----|----9----|---10----|
/NODE
         1                   0                   0                   0
         2                   1                   0                   0
         3                   2                   0                   0
         4                   3                   0                   0
         5                   0                   1                   0
         6                   1                   1                   0
         7                   2                   1                   0
         8                   3                   1                   0
         9                   0                1.01                   0
        10                 1.5                1.01                   0
        11                   3                1.01                   0
        12                   0                2.01                   0
        13                 1.5                2.01                   0
        14                   3                2.01                   0
        15                   0                   0                   1
        16                   1                   0                   1
        17                   2                   0                   1
        18                   3                   0                   1
        19                   0                   1                   1
        20                   1                   1                   1
# ... 22 like lines cut
#---1----|----2----|----3----|----4----|----5----|----6----|----7----|----8----|----9----|---10----|
#-  4. BOUNDARY CONDITIONS:
#---1----|----2----|----3----|----4----|----5----|----6----|----7----|----8----|----9----|---10----|
/BCS/1
inlet
#  Tra rot   skew_ID  grnod_ID
   101 000         0         2
/GRNOD/NODE/2
inlet
        12        13        14        26        27        28
#---1----|----2----|----3----|----4----|----5----|----6----|----7----|----8----|----9----|---10----|
/BCS/2
sides
#  Tra rot   skew_ID  grnod_ID
   101 000         0         3
/GRNOD/NODE/3
sides
         1         4         9        11        15        18        23        25
#---1----|----2----|----3----|----4----|----5----|----6----|----7----|----8----|----9----|---10----|
/BCS/3
z
#  Tra rot   skew_ID  grnod_ID
   001 000         0         4
/GRNOD/NODE/4
z
         2         3        10        16        17        24
#---1----|----2----|----3----|----4----|----5----|----6----|----7----|----8----|----9----|---10----|
#-  5. PARTS:
#---1----|----2----|----3----|----4----|----5----|----6----|----7----|----8----|----9----|---10----|
/PART/1
Grossier
         1         1         0
#---1----|----2----|----3----|----4----|----5----|----6----|----7----|----8----|----9----|---10----|
# BRICK elements of /PART/1/Grossier:
#---1----|----2----|----3----|----4----|----5----|----6----|----7----|----8----|----9----|---10----|
/BRICK/1
         4         9        10        13        12        23        24        27        26
         5        10        11        14        13        24        25        28        27
#---1----|----2----|----3----|----4----|----5----|----6----|----7----|----8----|----9----|---10----|
/PART/2
Fin
         1         1         0
#---1----|----2----|----3----|----4----|----5----|----6----|----7----|----8----|----9----|---10----|
# BRICK elements of /PART/2/Fin:
#---1----|----2----|----3----|----4----|----5----|----6----|----7----|----8----|----9----|---10----|
/BRICK/2
         1         1         2         6         5        15        16        20        19
         2         2         3         7         6        16        17        21        20
         3         3         4         8         7        17        18        22        21
#---1----|----2----|----3----|----4----|----5----|----6----|----7----|----8----|----9----|---10----|
/PART/3
Frontiere
         1         2         0
#---1----|----2----|----3----|----4----|----5----|----6----|----7----|----8----|----9----|---10----|
# BRICK elements of /PART/3/Frontiere:
#---1----|----2----|----3----|----4----|----5----|----6----|----7----|----8----|----9----|---10----|
/BRICK/3
         6        30        31         2         1        44        45        16        15
         7        31        32         3         2        45        46        17        16
         8        32        33         4         3        46        47        18        17
#---1----|----2----|----3----|----4----|----5----|----6----|----7----|----8----|----9----|---10----|
/PART/100
Frontiere top
         1         2         0
#---1----|----2----|----3----|----4----|----5----|----6----|----7----|----8----|----9----|---10----|
# BRICK elements of /PART/100/Frontiere top:
#---1----|----2----|----3----|----4----|----5----|----6----|----7----|----8----|----9----|---10----|
/BRICK/100
       104        12        26        27        13       112       126       127       113
       105        13        27        28        14       113       127       128       114
#---1----|----2----|----3----|----4----|----5----|----6----|----7----|----8----|----9----|---10----|
#-  6. GEOMETRICAL SETS:
#---1----|----2----|----3----|----4----|----5----|----6----|----7----|----8----|----9----|---10----|
/PROP/SOLID/1
STD
#   Isolid    Ismstr               Icpre               Inpts    Itetra    Iframe                  dn
         0         0                   0                   0         0         0                   0
#                q_a                 q_b                   h            LAMBDA_V                MU_V
               1E-20               1E-20                   0                   0                   0
#             dt_min   istrain      IHKT
                   0         0         0
#---1----|----2----|----3----|----4----|----5----|----6----|----7----|----8----|----9----|---10----|
#-  7. FUNCTIONS:
#---1----|----2----|----3----|----4----|----5----|----6----|----7----|----8----|----9----|---10----|
/FUNCT/1
constant
#                  X                   Y
                   0                   1
       1.00000002E20                   1
#---1----|----2----|----3----|----4----|----5----|----6----|----7----|----8----|----9----|---10----|
#-  8. INTERFACES:
#---1----|----2----|----3----|----4----|----5----|----6----|----7----|----8----|----9----|---10----|
/INTER/TYPE12/1
Interface
#    Slave    Master            Interpol
         5         6                   0
#                                                        TOL
                                                           0
#    Itied     Bcopt
         0         0
/SURF/SEG/5
Secondary
         1         6         5        19        20
         2         7         6        20        21
         3         8         7        21        22
/SURF/SEG/6
Main
         4         9        10        24        23
         5        10        11        25        24
#---1----|----2----|----3----|----4----|----5----|----6----|----7----|----8----|----9----|---10----|
#-  9. IMPOSED VELOCITIES:
#---1----|----2----|----3----|----4----|----5----|----6----|----7----|----8----|----9----|---10----|
/IMPVEL/1
ALL
#funct_IDT       Dir   skew_ID sensor_ID  grnod_ID  frame_ID     Icoor
         1         Y         0         0        20         0         0
#           Ascale_x            Fscale_Y              Tstart               Tstop
                   1                 -.2                   0                   0
/GRNOD/PART/20
ALL
         1         2
#---1----|----2----|----3----|----4----|----5----|----6----|----7----|----8----|----9----|---10----|
#- 10. NODE GROUPS:
#---1----|----2----|----3----|----4----|----5----|----6----|----7----|----8----|----9----|---10----|
#---1----|----2----|----3----|----4----|----5----|----6----|----7----|----8----|----9----|---10----|
#- 11. TIME HISTORIES:
#---1----|----2----|----3----|----4----|----5----|----6----|----7----|----8----|----9----|---10----|
/TH/PART/1
Part selection
#     var1      var2      var3      var4      var5      var6      var7      var8      var9     var10
DEF       
#     Obj1      Obj2      Obj3      Obj4      Obj5      Obj6      Obj7      Obj8      Obj9     Obj10
         1         2         3
#---1----|----2----|----3----|----4----|----5----|----6----|----7----|----8----|----9----|---10----|
/TH/NODE/2
SMALLAD00_th_nodes
#     var1      var2      var3      var4      var5      var6      var7      var8      var9     var10
DEF       
#    NODid     Iskew                                           NODname
         2         0                                                                                
         3         0                                                                                
         6         0                                                                                
         7         0                                                                                
        10         0                                                                                
        16         0                                                                                
        17         0                                                                                
        20         0                                                                                
        21         0                                                                                
        24         0                                                                                
#---1----|----2----|----3----|----4----|----5----|----6----|----7----|----8----|----9----|---10----|
/TH/BRIC/3
Bricks
#     var1      var2      var3      var4      var5      var6      var7      var8      var9     var10
DEF       
#     Elid                                                      Elname
         1                                                                                          
         2                                                                                          
         3                                                                                          
         4                                                                                          
         5                                                                                          
         6                                                                                          
         7                                                                                          
         8                                                                                          
#---1----|----2----|----3----|----4----|----5----|----6----|----7----|----8----|----9----|---10----|
/END
#---1----|----2----|----3----|----4----|----5----|----6----|----7----|----8----|----9----|---10----|
