#RADIOSS STARTER
# Copyright (C) 2024 Altair Engineering Inc. ("Holder")
# Model is licensed by Holder under CC BY-NC 4.0
# (https://creativecommons.org/licenses/by-nc/4.0/legalcode).
# Copyright (C) 2022 Altair Engineering Inc. ("Holder")
# Model is licensed by Holder under CC BY-NC 4.0
# (https://creativecommons.org/licenses/by-nc/4.0/legalcode).
#--------------------------------------------------------------------------------------------------|
#- RADIOSS DECK WRITTEN BY HyperCrash
#HyperCrash 2019.1 (64 bits) 
#Wed Sep 23 13:14:10 2020
#-
#--------------------------------------------------------------------------------------------------|
#- RADIOSS DECK WRITTEN BY HyperCrash
#HyperCrash 2019.1 (64 bits)
#Wed Sep 23 12:01:46 2020
#-
# INPUT DECK / GENERATED BY  MODEDIT V4.1c
#
#DATE	Wed May 26 11:49:41 1999
#
#
#
#-------------------------------------------------------------------------------
#
#
#-
#- DATE	Wed Sep 23 12:01:46 2020
#--------------------------------------------------------------------------------------------------|
#---1----|----2----|----3----|----4----|----5----|----6----|----7----|----8----|----9----|---10----|
#
#-
#- DATE	Wed Sep 23 13:14:10 2020
#--------------------------------------------------------------------------------------------------|
#---1----|----2----|----3----|----4----|----5----|----6----|----7----|----8----|----9----|---10----|
/BEGIN
CUBC                                                                       
      2019         0
                  kg                  mm                  ms
                  kg                  mm                  ms
#---1----|----2----|----3----|----4----|----5----|----6----|----7----|----8----|----9----|---10----|
#-  1. CONTROL CARDS:
#---1----|----2----|----3----|----4----|----5----|----6----|----7----|----8----|----9----|---10----|
/TITLE
nuage
#---1----|----2----|----3----|----4----|----5----|----6----|----7----|----8----|----9----|---10----|
#include CUBCD0B
#include qadiags.inc
#---1----|----2----|----3----|----4----|----5----|----6----|----7----|----8----|----9----|---10----|
/ANALY
#    N2D3D             IPARITH      ISUB
         0                   0         0
#---1----|----2----|----3----|----4----|----5----|----6----|----7----|----8----|----9----|---10----|
/DEF_SHELL
#   ISHELL    ISMSTR    ITHICK     IPLAS   ISTRAIN                        I_SH3N     IDRIL
         0         0         0         0         0                             1         0
#---1----|----2----|----3----|----4----|----5----|----6----|----7----|----8----|----9----|---10----|
/DEF_SOLID
#  I_SOLID    ISMSTR             ISTRAIN                                  IFRAME
         0         0                   2                                       0
#---1----|----2----|----3----|----4----|----5----|----6----|----7----|----8----|----9----|---10----|
/IOFLAG
#     IPRI               IGTYP     IOUTP    IOUTYY   IROOTYY     IDROT
        10                   0         0         0         0         0
#---1----|----2----|----3----|----4----|----5----|----6----|----7----|----8----|----9----|---10----|
/RANDOM
#       Random-Noise                Seed
                   0                   0
#---1----|----2----|----3----|----4----|----5----|----6----|----7----|----8----|----9----|---10----|
/SHFRA/V4
#---1----|----2----|----3----|----4----|----5----|----6----|----7----|----8----|----9----|---10----|
/SPMD
#   DOMDEC     Nproc              Dkword             Nthread
         0         0                   0                   0
#---1----|----2----|----3----|----4----|----5----|----6----|----7----|----8----|----9----|---10----|
#-  2. MATERIALS:
#---1----|----2----|----3----|----4----|----5----|----6----|----7----|----8----|----9----|---10----|
/MAT/HYDPLA/1
CUIVRE
#              RHO_0
                8.93
#                  E                  nu
                   0                   0
#                  a                   b                   n             eps_max           sigma_max
                   0                   0                   0                   0                   0
#               Pmin
                   0
/EOS/POLYNOMIAL/1
New Equation Of State
#                 C0                  C1                  C2                  C3
                   0          1.29999995                   0                   0
#                 C4                  C5                  E0                 Psh               RHO_0
                   0                   0                   0                   0                   0
#---1----|----2----|----3----|----4----|----5----|----6----|----7----|----8----|----9----|---10----|
#-  3. SKEWS & FRAMES:
#---1----|----2----|----3----|----4----|----5----|----6----|----7----|----8----|----9----|---10----|
/FRAME/FIX/1
is identical to global
#                 OX                  OY                  OZ
                   0                   0                   0
#                 X1                  Y1                  Z1
                   0                   1                   0
#                 X2                  Y2                  Z2
                   0                   0                   1
#---1----|----2----|----3----|----4----|----5----|----6----|----7----|----8----|----9----|---10----|	   
/FRAME/FIX/2
is translated from global
#                 OX                  OY                  OZ
            1.283001                   0                   0
#                 X1                  Y1                  Z1
                   0                  -1                   0
#                 X2                  Y2                  Z2
                   0                   0                   1
#---1----|----2----|----3----|----4----|----5----|----6----|----7----|----8----|----9----|---10----|
/FRAME/FIX/3
is translated from global
#                 OX                  OY                  OZ
           -1.283001                   0                   0
#                 X1                  Y1                  Z1
                   0                   1                   0
#                 X2                  Y2                  Z2
                   0                   0                   1
#---1----|----2----|----3----|----4----|----5----|----6----|----7----|----8----|----9----|---10----|
/FRAME/FIX/4
is translated from global
#                 OX                  OY                  OZ
                   0            1.283001                   0
#                 X1                  Y1                  Z1
                   0                  -1                   0
#                 X2                  Y2                  Z2
                   0                   0                   1
#---1----|----2----|----3----|----4----|----5----|----6----|----7----|----8----|----9----|---10----|
/FRAME/FIX/5
is translated from global
#                 OX                  OY                  OZ
                   0           -1.283001                   0
#                 X1                  Y1                  Z1
                   0                   1                   0
#                 X2                  Y2                  Z2
                   0                   0                   1
#---1----|----2----|----3----|----4----|----5----|----6----|----7----|----8----|----9----|---10----|
#-  4. PARTS:
#---1----|----2----|----3----|----4----|----5----|----6----|----7----|----8----|----9----|---10----|
/PART/1
New PART 1
         1         1         0
#---1----|----2----|----3----|----4----|----5----|----6----|----7----|----8----|----9----|---10----|
#-  5. GEOMETRICAL SETS:
#---1----|----2----|----3----|----4----|----5----|----6----|----7----|----8----|----9----|---10----|
/PROP/TYPE34/1
myprop
#                 mp                  qa                  qb            alpha_cs   skew_ID      h_ID
           .58936189                   2                   1                   0         0         0
#    order                   h             xi_stab
        -1                   0                   0
#---1----|----2----|----3----|----4----|----5----|----6----|----7----|----8----|----9----|---10----|
#-  6. FUNCTIONS:
#---1----|----2----|----3----|----4----|----5----|----6----|----7----|----8----|----9----|---10----|
/FUNCT/1
constante1
#                  X                   Y
                   0                   1
                1000                   1
#---1----|----2----|----3----|----4----|----5----|----6----|----7----|----8----|----9----|---10----|
#-  7. INITIAL VELOCITIES:
#---1----|----2----|----3----|----4----|----5----|----6----|----7----|----8----|----9----|---10----|
/INIVEL/TRA/1
NULL
#                 Vx                  Vy                  Vz   Gnod_id   Skew_id
                   0                   0        -.0381500006         1         0
#---1----|----2----|----3----|----4----|----5----|----6----|----7----|----8----|----9----|---10----|
#-  9. TIME HISTORIES:
#---1----|----2----|----3----|----4----|----5----|----6----|----7----|----8----|----9----|---10----|
#---1----|----2----|----3----|----4----|----5----|----6----|----7----|----8----|----9----|---10----|
/TH/SPHCEL/1
central cells
#     var1      var2      var3      var4      var5      var6      var7      var8      var9     var10
DEF       
#   ELid                                          ELname
    659381                 								   lowest cell                                                   
    659383                                                                                          
    659385                                                                                          
    659387                                                                                          
    659389                                                                                          
    659391                                                                                          
    659393                                                                                          
    659395                                                                                          
    659397                                                                                          
    659399                                                                                          
    659401                                                                                          
    659403                                                                                          
    659405                                                                                          
    659407                                                                                          
    659409                                                                                          
    659411                                                                                          
#---1----|----2----|----3----|----4----|----5----|----6----|----7----|----8----|----9----|---10----|
/TH/NODE/2
central nodes
#     var1      var2      var3      var4      var5      var6      var7      var8      var9     var10
DEF       
#    NODid     Iskew                                           NODname
    659381         0									   lowest node                                                         
    659383         0                                                                                
    659385         0                                                                                
    659387         0                                                                                
    659389         0                                                                                
    659391         0                                                                                
    659393         0                                                                                
    659395         0                                                                                
    659397         0                                                                                
    659399         0                                                                                
    659401         0                                                                                
    659403         0                                                                                
    659405         0                                                                                
    659407         0                                                                                
    659409         0                                                                                
    659411         0                                                                                   
#---1----|----2----|----3----|----4----|----5----|----6----|----7----|----8----|----9----|---10----|
#-  8. SPH BOUNDARY CONDITIONS:
#---1----|----2----|----3----|----4----|----5----|----6----|----7----|----8----|----9----|---10----|
/SPHGLO
       0.1     15000 
#---1----|----2----|----3----|----4----|----5----|----6----|----7----|----8----|----9----|---10----|
/SPHBCS/TIED/1
symetrie z
#      Dir  frame_ID  grnod_ID                Ilev
         Z         1         2                   1
#---1----|----2----|----3----|----4----|----5----|----6----|----7----|----8----|----9----|---10----|	   
/SPHBCS/SLIDE/2
symetrie x
#      Dir  frame_ID  grnod_ID                Ilev
         X         2         5                   0
#---1----|----2----|----3----|----4----|----5----|----6----|----7----|----8----|----9----|---10----|	   	   
/SPHBCS/SLIDE/3
symetrie x
#      Dir  frame_ID  grnod_ID                Ilev
         X         3         6                   0
#---1----|----2----|----3----|----4----|----5----|----6----|----7----|----8----|----9----|---10----|	   
/SPHBCS/SLIDE/4
symetrie y
#      Dir  frame_ID  grnod_ID                Ilev
         Y         4         7                   0
#---1----|----2----|----3----|----4----|----5----|----6----|----7----|----8----|----9----|---10----|	   
/SPHBCS/SLIDE/5
symetrie y
#      Dir  frame_ID  grnod_ID                Ilev
         Y         5         8                   0
/END
#---1----|----2----|----3----|----4----|----5----|----6----|----7----|----8----|----9----|---10----|
