#RADIOSS STARTER
# Copyright (C) 2022 Altair Engineering Inc. ("Holder")
# Model is licensed by Holder under CC BY-NC 4.0
# (https://creativecommons.org/licenses/by-nc/4.0/legalcode).
#---1----|----2----|----3----|----4----|----5----|----6----|----7----|----8----|----9----|---10----|
/BEGIN
tensile_LAW2
      2017         0
                  kg                  mm                  ms
                  kg                  mm                  ms
##
##--------------------------------------------------------------------------------------------------
## Material Law No 2. JOHNSON-COOK / ZERILLI-ARMSTRONG ELASTOPLASTIC 
##--------------------------------------------------------------------------------------------------
/MAT/PLAS_JOHNS/2
Steel_DP600                                                                                         
7.80000000000000E-06
               210.0                 0.3         1
                 0.3               0.686               0.129                 0.0                    
                                                                                                    
                                                                                
##--------------------------------------------------------------------------------------------------
## NODES
##--------------------------------------------------------------------------------------------------
/NODE
        13               100.0                 0.0                 0.0
        14               100.0                 2.0                 0.0
        15               100.0                 4.0                 0.0
        16               100.0               5.975                 0.0
        17               97.99                 6.0                 0.0
        18               95.97                 6.0                 0.0
        19               93.96                 6.0                 0.0
        20               91.94                 6.0                 0.0
        21               89.93                 6.0                 0.0
        22               87.91                 6.0                 0.0
        23                85.9                 6.0                 0.0
        24               83.88                 6.0                 0.0
        25               81.87                 6.0                 0.0
        26               79.86                 6.0                 0.0
        27               77.84                 6.0                 0.0
        28               75.83                 6.0                 0.0
        29               73.81                 6.0                 0.0
        30                71.8                 6.0                 0.0
        31               69.78                 6.0                 0.0
        32               67.77                 6.0                 0.0
# ... 900 like lines cut
##--------------------------------------------------------------------------------------------------
## Boundary Conditions
##--------------------------------------------------------------------------------------------------
##HWCOLOR loadcollectors 1 49
/BCS/1
constraint1                                                                                         
   111 111         0         2
/GRNOD/NODE/2
grnodnode                                                                                           
        60        61        62        63        64        65        66        67        68        69
        70        71        72        73        74        75        76        77        78       122
       123       126       127       128       129       170       171       172       173       218
       219       220       221       222       227       228       229       230       231       232
       233       234       235       236       237       254       255       256       257       317
       318       319       320       321       322       323       324       325       326       327
       328       379       380       383       384       385       386       427       428       429
       430       475       476       477       478       479       484       485       486       487
       488       489       490       491       492       493       494       511       512       513
       514
##HWCOLOR loadcollectors 2 49
/BCS/2
constraint2                                                                                         
   011 111         0         3
/GRNOD/NODE/3
grnodnode.1                                                                                         
       990
##--------------------------------------------------------------------------------------------------
## Frames - Fix
##--------------------------------------------------------------------------------------------------
##--------------------------------------------------------------------------------------------------
## Frames - Mov
##--------------------------------------------------------------------------------------------------
/FRAME/MOV/1
                                                                                                    
       102       616       148
##--------------------------------------------------------------------------------------------------
## Triangular Shell Elements
##--------------------------------------------------------------------------------------------------
/SH3N/3
       200       261       266       267                                                            
       201       518       524       523                                                            
       202       775       781       780                                                            
      1007       981       986       987                                                            
##--------------------------------------------------------------------------------------------------
## Quad Shell Elements
##--------------------------------------------------------------------------------------------------
/SHELL/3
       203        65        66        67       122                                                  
       204        71        72        73       123                                                  
       205        15        16        17       124                                                  
       206       121        13        14       125                                                  
       207       122        67        68       126                                                  
       208       126        68        69       127                                                  
       209       127        69        70       128                                                  
       210       128        70        71       123                                                  
       211       123        73        74       129                                                  
       212       124        17        18       130                                                  
       213       125        14        15       124                                                  
       214       130        18        19       131                                                  
       215       131        19        20       132                                                  
       216       132        20        21       133                                                  
       217       133        21        22       134                                                  
       218       134        22        23       135                                                  
       219       135        23        24       136                                                  
       220       136        24        25       137                                                  
       221       137        25        26       138                                                  
       222       138        26        27       139                                                  
# ... 784 like lines cut
##--------------------------------------------------------------------------------------------------
## Shell Property Set (pid 1)
##--------------------------------------------------------------------------------------------------
/PROP/SHELL/1
sheet_1.7                                                                                           
        24                              
                                                                                                    
         5                           2.5                                       1         1
##--------------------------------------------------------------------------------------------------
## Functions
##--------------------------------------------------------------------------------------------------
##HWCOLOR curves 1 3
/FUNCT/1
Load                                                                                                
                 0.0                 1.0
1.00000000000000E+30                 1.0
##--------------------------------------------------------------------------------------------------
## N Noded Rigid Bodies
##--------------------------------------------------------------------------------------------------
##HMMOVE elements 1 4
/RBODY/1
Rigid_Body                                                                                          
       990         0                                                 1                              
                                                            
                                                            
          
/GRNOD/NODE/1
rigid809nodeset                                                                                     
       574       575       576       577       578       579       580       581       582       583
       584       585       586       587       588       589       590       591       592       636
       637       640       641       642       643       684       685       686       687       732
       733       734       735       736       741       742       743       744       745       746
       747       748       749       750       751       768       769       770       771       830
       831       832       833       834       835       836       837       838       839       840
       841       842       843       846       847       848       849       890       891       892
       893       938       939       940       941       942       947       948       949       950
       951       952       953       954       955       956       957       974       975       976
       977
##--------------------------------------------------------------------------------------------------
## Imposed Velocities
##--------------------------------------------------------------------------------------------------
##HWCOLOR loadcollectors 3 5
/IMPVEL/3
imposed_velocity                                                                                    
         1         X                             4                    
                 1.0                 1.0                 0.01.00000000000000E+30
/GRNOD/NODE/4
grnodnode.2                                                                                         
       990
##--------------------------------------------------------------------------------------------------
## Sets
##--------------------------------------------------------------------------------------------------
##--------------------------------------------------------------------------------------------------
## Parts
##--------------------------------------------------------------------------------------------------
##HWCOLOR components 3 3
/PART/3
Tensile_coupon                                                                                      
         1         2                              
##--------------------------------------------------------------------------------------------------
## Time History - Nodes
##--------------------------------------------------------------------------------------------------
/TH/NODE/2
TH_Measuring_Nodes                                                                                  
DEF       
       102         1                                                                                
       616         1                                                                                
##--------------------------------------------------------------------------------------------------
## Time History - Elems
##--------------------------------------------------------------------------------------------------
/TH/RBODY/1
TH_Rigid_Body                                                                                       
DEF       
         1
##--------------------------------------------------------------------------------------------------
## Time History - Parts
##--------------------------------------------------------------------------------------------------
##--------------------------------------------------------------------------------------------------
## Time History - Frames
##--------------------------------------------------------------------------------------------------
##--------------------------------------------------------------------------------------------------
## Time History - Interfaces and Rwalls
##--------------------------------------------------------------------------------------------------
##--------------------------------------------------------------------------------------------------
## Time History - Cyl Joints
##--------------------------------------------------------------------------------------------------
##--------------------------------------------------------------------------------------------------
## Time History - Monv, Accel and Sections
##--------------------------------------------------------------------------------------------------
##--------------------------------------------------------------------------------------------------
## Time History - Subsets
##--------------------------------------------------------------------------------------------------
##--------------------------------------------------------------------------------------------------
## Time History - Control vols
##--------------------------------------------------------------------------------------------------
##--------------------------------------------------------------------------------------------------
## Time History - Cross Sections
##--------------------------------------------------------------------------------------------------
##--------------------------------------------------------------------------------------------------
## Time History - Load Collectors
##--------------------------------------------------------------------------------------------------
##--------------------------------------------------------------------------------------------------
## Time History - Sets
##--------------------------------------------------------------------------------------------------
##------------------------------------------------------------------------------
## End Of Radioss Block Deck
##------------------------------------------------------------------------------
/END
