//Copyright>    CFG Files and Library ("CFG")
//Copyright>    Copyright (C) 1986-2023 Altair Engineering Inc.
//Copyright>
//Copyright>    Altair Engineering Inc. grants to third parties limited permission to
//Copyright>    use and modify CFG solely in connection with OpenRadioss software, provided
//Copyright>    that any modification to CFG by a third party must be provided back to
//Copyright>    Altair Engineering Inc. and shall be deemed a Contribution under and therefore
//Copyright>    subject to the CONTRIBUTOR LICENSE AGREEMENT for OpenRadioss software.
//Copyright>
//Copyright>    CFG IS PROVIDED "AS IS", WITHOUT WARRANTY OF ANY KIND, EXPRESS OR IMPLIED,
//Copyright>    INCLUDING, BUT NOT LIMITED TO, THE WARRANTIES OF MERCHANTABILITY, FITNESS FOR
//Copyright>    A PARTICULAR PURPOSE, AND NONINFRINGEMENT.  IN NO EVENT SHALL ALTAIR ENGINEERING
//Copyright>    INC. OR ITS AFFILIATES BE LIABLE FOR ANY CLAIM, DAMAGES, OR OTHER LIABILITY,
//Copyright>    WHETHER IN AN ACTION OF CONTRACT, TORT, OR OTHERWISE, ARISING FROM, OUT OF, OR
//Copyright>    IN CONNECTION WITH CFG OR THE USE OR OTHER DEALINGS IN CFG.
//
//CONTROL_HOURGLASS
//

ATTRIBUTES(COMMON)
{
  KEYWORD_STR                             = VALUE(STRING, "Solver Keyword");
  HourglassOption                         = VALUE(INT, "HourglassOption");
  LSD_IHQ                                 = VALUE(INT,"Default hourglass viscosity type");
  LSD_QH                                  = VALUE(FLOAT,"Default hourglass coefficient");
}

SKEYWORDS_IDENTIFIER(COMMON)
{
  KEYWORD_STR                             = 9000;
  HourglassOption                         = 7777;
  LSD_IHQ                                 = 2098;
  LSD_QH                                  = 2099;
}

CHECK(COMMON)
{

}

DEFAULTS(COMMON)
{
    LSD_QH                                  = 0.1;
}

GUI(COMMON)
{
  FLAG(HourglassOption);
  if(HourglassOption != FALSE)
  {
    ASSIGN(KEYWORD_STR, "*CONTROL_HOURGLASS_936");
  }
  else
  {
    ASSIGN(KEYWORD_STR, "*CONTROL_HOURGLASS");
  }

  RADIO(LSD_IHQ)
  {
    ADD(1,"1: Standard LS-DYNA");
    ADD(2,"2: Flanagan-Belytschko integration");
    ADD(3,"3: Flanagan-Belytschko with exact volume integration");
    ADD(4,"4: Stiffness form of type2");
    ADD(5,"5: Stiffness form of type3");
    ADD(6,"6: Belytschko-Bindeman strain co-relational stiffness");
    ADD(7,"7: Linear total strain form of type 6 hourglass control");
    ADD(8,"8: Applicable to the type 16 fully integrated shell element");
    ADD(9,"9: Puso strain stiffness form for 3D hexahedral elements");
    ADD(10,"10: Cosserat Point Element (CPE) developed by Jabareen and Rubin [2008]");
  }
  SCALAR(LSD_QH) {DIMENSION ="DIMENSIONLESS";}
}

// File format
FORMAT(Keyword971) {
  if(HourglassOption != FALSE)
  {
    HEADER("*CONTROL_HOURGLASS_936");
    COMMENT("$      IHQ        QH");
    CARD("%10d%10lg",LSD_IHQ,LSD_QH);
  }
  else
  {   
    HEADER("*CONTROL_HOURGLASS");
    COMMENT("$      IHQ        QH");
    CARD("%10d%10lg",LSD_IHQ,LSD_QH);
  }
}