//Copyright>    CFG Files and Library ("CFG")
//Copyright>    Copyright (C) 1986-2023 Altair Engineering Inc.
//Copyright>
//Copyright>    Altair Engineering Inc. grants to third parties limited permission to
//Copyright>    use and modify CFG solely in connection with OpenRadioss software, provided
//Copyright>    that any modification to CFG by a third party must be provided back to
//Copyright>    Altair Engineering Inc. and shall be deemed a Contribution under and therefore
//Copyright>    subject to the CONTRIBUTOR LICENSE AGREEMENT for OpenRadioss software.
//Copyright>
//Copyright>    CFG IS PROVIDED "AS IS", WITHOUT WARRANTY OF ANY KIND, EXPRESS OR IMPLIED,
//Copyright>    INCLUDING, BUT NOT LIMITED TO, THE WARRANTIES OF MERCHANTABILITY, FITNESS FOR
//Copyright>    A PARTICULAR PURPOSE, AND NONINFRINGEMENT.  IN NO EVENT SHALL ALTAIR ENGINEERING
//Copyright>    INC. OR ITS AFFILIATES BE LIABLE FOR ANY CLAIM, DAMAGES, OR OTHER LIABILITY,
//Copyright>    WHETHER IN AN ACTION OF CONTRACT, TORT, OR OTHERWISE, ARISING FROM, OUT OF, OR
//Copyright>    IN CONNECTION WITH CFG OR THE USE OR OTHER DEALINGS IN CFG.
//
//CONTROL_COUPLING
//

ATTRIBUTES(COMMON)
{
    KEYWORD_STR                               = VALUE(STRING, "Solver Keyword");
    LSD_UNLENG                                = VALUE(FLOAT,"Unit conversion factor for length");
    LSD_UNTIME                                = VALUE(FLOAT,"Unit conversion factor for time");
    LSD_UNFORC                                = VALUE(FLOAT,"Unit conversion factor for force");
    LSD_TIMIDL                                = VALUE(FLOAT,"Idle time during which CAL3D or MADYMO is computing and LS-DYNA remains inactive");
    LSD_FLIPX                                 = VALUE(INT,"Flag for flipping X-coordinate of CAL3D/MADYMO3D relative to the LS-DYNA model");
    LSD_FLIPY                                 = VALUE(INT,"Flag for flipping Y-coordinate of CAL3D/MADYMO3D relative to the LS-DYNA model");
    LSD_FLIPZ                                 = VALUE(INT,"Flag for flipping Z-coordinate of CAL3D/MADYMO3D relative to the LS-DYNA model");
    LSD_SUBCYL                                = VALUE(INT,"CAL3D/MADYMO3D subcycling interval");
}

SKEYWORDS_IDENTIFIER(COMMON)
{
    KEYWORD_STR                               = 9000;
    LSD_UNLENG                                = 2133;
    LSD_UNTIME                                = 2134;
    LSD_UNFORC                                = 2135;
    LSD_TIMIDL                                = 2140;
    LSD_FLIPX                                 = 2137;
    LSD_FLIPY                                 = 2138;
    LSD_FLIPZ                                 = 2139;
    LSD_SUBCYL                                = 2143;
}

CHECK(COMMON)
{

}

DEFAULTS(COMMON)
{
    LSD_UNLENG                                = 1.0;
    LSD_UNTIME                                = 1.0;
    LSD_UNFORC                                = 1.0;
    LSD_TIMIDL                                = 0.0;
    LSD_FLIPX                                 = 0;
    LSD_FLIPY                                 = 0;
    LSD_FLIPZ                                 = 0;
    LSD_SUBCYL                                = 1;
}

GUI(COMMON)
{
  ASSIGN(KEYWORD_STR, "*CONTROL_COUPLING");
  SCALAR(LSD_UNLENG) {DIMENSION = "DIMENSIONLESS";}
  SCALAR(LSD_UNTIME) {DIMENSION = "DIMENSIONLESS";}
  SCALAR(LSD_UNFORC) {DIMENSION = "DIMENSIONLESS";}
  SCALAR(LSD_TIMIDL) {DIMENSION = "DIMENSIONLESS";}
  RADIO(LSD_FLIPX)
  {
    ADD(0,"0: Off");
    ADD(1,"1: On");
  }
  RADIO(LSD_FLIPY)
  {
    ADD(0,"0: Off");
    ADD(1,"1: On");
  }
  RADIO(LSD_FLIPZ)
  {
    ADD(0,"0: Off");
    ADD(1,"1: On");
  }
  SCALAR(LSD_SUBCYL) {DIMENSION = "DIMENSIONLESS";}
}

//File format
FORMAT(Keyword971)
{
  HEADER("*CONTROL_COUPLING");
  COMMENT("$   UNLENG    UNTIME    UNFORC    TIMIDL     FLIPX     FLIPY     FLIPZ    SUBCYL");
  CARD("%10lg%10lg%10lg%10lg%10d%10d%10d%10d",LSD_UNLENG,LSD_UNTIME,LSD_UNFORC,LSD_TIMIDL,LSD_FLIPX,LSD_FLIPY,LSD_FLIPZ,LSD_SUBCYL);
}
