//
//CONTROL_HOURGLASS
//

ATTRIBUTES(COMMON)
{
  KEYWORD_STR                             = VALUE(STRING, "Solver Keyword");
  HourglassOption                         = VALUE(INT, "HourglassOption");
  LSD_IHQ                                 = VALUE(INT,"Default hourglass viscosity type");
  LSD_QH                                  = VALUE(FLOAT,"Default hourglass coefficient");
}

SKEYWORDS_IDENTIFIER(COMMON)
{
  KEYWORD_STR                             = 9000;
  HourglassOption                         = 7777;
  LSD_IHQ                                 = 2098;
  LSD_QH                                  = 2099;
}

CHECK(COMMON)
{

}

DEFAULTS(COMMON)
{
    LSD_QH                                  = 0.1;
}

GUI(COMMON)
{
  FLAG(HourglassOption);
  if(HourglassOption != FALSE)
  {
    ASSIGN(KEYWORD_STR, "*CONTROL_HOURGLASS_936");
  }
  else
  {
    ASSIGN(KEYWORD_STR, "*CONTROL_HOURGLASS");
  }

  RADIO(LSD_IHQ)
  {
    ADD(1,"1: Standard LS-DYNA");
    ADD(2,"2: Flanagan-Belytschko integration");
    ADD(3,"3: Flanagan-Belytschko with exact volume integration");
    ADD(4,"4: Stiffness form of type2");
    ADD(5,"5: Stiffness form of type3");
    ADD(6,"6: Belytschko-Bindeman strain co-relational stiffness");
    ADD(7,"7: Linear total strain form of type 6 hourglass control");
    ADD(8,"8: Applicable to the type 16 fully integrated shell element");
    ADD(9,"9: Puso strain stiffness form for 3D hexahedral elements");
    ADD(10,"10: Cosserat Point Element (CPE) developed by Jabareen and Rubin [2008]");
  }
  SCALAR(LSD_QH) {DIMENSION ="DIMENSIONLESS";}
}

// File format
FORMAT(Keyword971) {
  if(HourglassOption != FALSE)
  {
    HEADER("*CONTROL_HOURGLASS_936");
    COMMENT("$      IHQ        QH");
    CARD("%10d%10lg",LSD_IHQ,LSD_QH);
  }
  else
  {   
    HEADER("*CONTROL_HOURGLASS");
    COMMENT("$      IHQ        QH");
    CARD("%10d%10lg",LSD_IHQ,LSD_QH);
  }
}