//
//CONTROL_COUPLING
//

ATTRIBUTES(COMMON)
{
    KEYWORD_STR                               = VALUE(STRING, "Solver Keyword");
    LSD_UNLENG                                = VALUE(FLOAT,"Unit conversion factor for length");
    LSD_UNTIME                                = VALUE(FLOAT,"Unit conversion factor for time");
    LSD_UNFORC                                = VALUE(FLOAT,"Unit conversion factor for force");
    LSD_TIMIDL                                = VALUE(FLOAT,"Idle time during which CAL3D or MADYMO is computing and LS-DYNA remains inactive");
    LSD_FLIPX                                 = VALUE(INT,"Flag for flipping X-coordinate of CAL3D/MADYMO3D relative to the LS-DYNA model");
    LSD_FLIPY                                 = VALUE(INT,"Flag for flipping Y-coordinate of CAL3D/MADYMO3D relative to the LS-DYNA model");
    LSD_FLIPZ                                 = VALUE(INT,"Flag for flipping Z-coordinate of CAL3D/MADYMO3D relative to the LS-DYNA model");
    LSD_SUBCYL                                = VALUE(INT,"CAL3D/MADYMO3D subcycling interval");
}

SKEYWORDS_IDENTIFIER(COMMON)
{
    KEYWORD_STR                               = 9000;
    LSD_UNLENG                                = 2133;
    LSD_UNTIME                                = 2134;
    LSD_UNFORC                                = 2135;
    LSD_TIMIDL                                = 2140;
    LSD_FLIPX                                 = 2137;
    LSD_FLIPY                                 = 2138;
    LSD_FLIPZ                                 = 2139;
    LSD_SUBCYL                                = 2143;
}

CHECK(COMMON)
{

}

DEFAULTS(COMMON)
{
    LSD_UNLENG                                = 1.0;
    LSD_UNTIME                                = 1.0;
    LSD_UNFORC                                = 1.0;
    LSD_TIMIDL                                = 0.0;
    LSD_FLIPX                                 = 0;
    LSD_FLIPY                                 = 0;
    LSD_FLIPZ                                 = 0;
    LSD_SUBCYL                                = 1;
}

GUI(COMMON)
{
  ASSIGN(KEYWORD_STR, "*CONTROL_COUPLING");
  SCALAR(LSD_UNLENG) {DIMENSION = "DIMENSIONLESS";}
  SCALAR(LSD_UNTIME) {DIMENSION = "DIMENSIONLESS";}
  SCALAR(LSD_UNFORC) {DIMENSION = "DIMENSIONLESS";}
  SCALAR(LSD_TIMIDL) {DIMENSION = "DIMENSIONLESS";}
  RADIO(LSD_FLIPX)
  {
    ADD(0,"0: Off");
    ADD(1,"1: On");
  }
  RADIO(LSD_FLIPY)
  {
    ADD(0,"0: Off");
    ADD(1,"1: On");
  }
  RADIO(LSD_FLIPZ)
  {
    ADD(0,"0: Off");
    ADD(1,"1: On");
  }
  SCALAR(LSD_SUBCYL) {DIMENSION = "DIMENSIONLESS";}
}

//File format
FORMAT(Keyword971)
{
  HEADER("*CONTROL_COUPLING");
  COMMENT("$   UNLENG    UNTIME    UNFORC    TIMIDL     FLIPX     FLIPY     FLIPZ    SUBCYL");
  CARD("%10lg%10lg%10lg%10lg%10d%10d%10d%10d",LSD_UNLENG,LSD_UNTIME,LSD_UNFORC,LSD_TIMIDL,LSD_FLIPX,LSD_FLIPY,LSD_FLIPZ,LSD_SUBCYL);
}
