//
//DATABASE_FORMAT
//

ATTRIBUTES(COMMON)
{
// INPUT ATTRIBUTES
  LSD_IFORM                                   = VALUE(INT,"Output format for D3PLOT and D3THDT files");
  LSD_IBINARY                                 = VALUE(INT,"Word size of the binary output files (D3PLOT, D3THDT, D3DRLF and interface files for 64 bit computer such as CRAY and NEC");

    
// HM INTERNAL
    KEYWORD_STR                               = VALUE(STRING, "Solver Keyword");
}

SKEYWORDS_IDENTIFIER(COMMON)
{
    KEYWORD_STR                               = 9000;
    LSD_IFORM                                 = 5012;
    LSD_IBINARY                               = 5084;
}

CHECK(COMMON)
{

}

DEFAULTS(COMMON)
{
    LSD_IFORM                                 = 0;
    LSD_IBINARY                               = 0;
}



GUI(COMMON)
{
  ASSIGN(KEYWORD_STR, "*DATABASE_FORMAT");

  RADIO(LSD_IFORM)
  {
    ADD(0,"0: LS-DYNA database format (default)");
    ADD(1,"1: ANSYS database format");
    ADD(2,"2: Both LS-DYNA and ANSYS database formats");
  }
  RADIO(LSD_IBINARY)
  {
    ADD(0,"0: Default 64 bit format");
    ADD(1,"1: 32 bit IEEE format");
  }
}

//File format
FORMAT(Keyword971)
{
  HEADER("*DATABASE_FORMAT");

  COMMENT("$    IFORM   IBINARY");
  CARD("%10d%10d",LSD_IFORM,LSD_IBINARY);
}
