//Copyright>    CFG Files and Library ("CFG")
//Copyright>    Copyright (C) 1986-2025 Altair Engineering Inc.
//Copyright>
//Copyright>    Altair Engineering Inc. grants to third parties limited permission to
//Copyright>    use and modify CFG solely in connection with OpenRadioss software, provided
//Copyright>    that any modification to CFG by a third party must be provided back to
//Copyright>    Altair Engineering Inc. and shall be deemed a Contribution under and therefore
//Copyright>    subject to the CONTRIBUTOR LICENSE AGREEMENT for OpenRadioss software.
//Copyright>
//Copyright>    CFG IS PROVIDED "AS IS", WITHOUT WARRANTY OF ANY KIND, EXPRESS OR IMPLIED,
//Copyright>    INCLUDING, BUT NOT LIMITED TO, THE WARRANTIES OF MERCHANTABILITY, FITNESS FOR
//Copyright>    A PARTICULAR PURPOSE, AND NONINFRINGEMENT.  IN NO EVENT SHALL ALTAIR ENGINEERING
//Copyright>    INC. OR ITS AFFILIATES BE LIABLE FOR ANY CLAIM, DAMAGES, OR OTHER LIABILITY,
//Copyright>    WHETHER IN AN ACTION OF CONTRACT, TORT, OR OTHERWISE, ARISING FROM, OUT OF, OR
//Copyright>    IN CONNECTION WITH CFG OR THE USE OR OTHER DEALINGS IN CFG.
//
// LS-Dyna PARAMETER_EXPRESSION
//

ATTRIBUTES(COMMON) { 
  PARAM_NAME 	= VALUE(STRING,"Name of parameter the parameter");
  IS_NEGATED	= VALUE(INT, "Is used with negative sign");
  PARAM_VALUE	= VALUE(FLOAT, "Parameter value");
  PARAM_VALUE_TYPE = VALUE(INT,"Value Type");
  
   //Additional attributes for expression
  PARAM_EXPRESSION = VALUE(STRING,"Expression"); //To store string associated with expression
  IS_PARAM_EVALUATED = VALUE(INT, "Flag to check if expression is evaluated");
  IS_RESOLVED = VALUE(INT, "Is defined in the model");
  IS_LOCAL = VALUE(INT, "Local");
  PARAM_SCOPE        = VALUE(STRING, ""); 
}

DEFAULTS(COMMON) 
{
}
DRAWABLES(COMMON)
{
     _PARAM_NAME         = SCALAR(PARAM_NAME);
     _PARAM_SCOPE        = SCALAR(PARAM_SCOPE);

     _PARAM_VALUE_DOUBLE = SCALAR(PARAM_VALUE);

     _PARAM_TYPE         = SCALAR(PARAM_VALUE_TYPE);
}


GUI(COMMON) {
  SCALAR(PARAM_NAME);
  FLAG(IS_LOCAL);
  SCALAR(PARAM_EXPRESSION);
  SCALAR(PARAM_VALUE);

  FLAG(IS_RESOLVED);
}

FORMAT(radioss2017) 
{
  HEADER("*PARAMETER_EXPRESSION");
  ASSIGN(PARAM_SCOPE, "GLOBAL");
  ASSIGN(PARAM_VALUE_TYPE, 0);
  CARD("%-10s%90s",PARAM_NAME,PARAM_EXPRESSION);
}