#RADIOSS STARTER
# Copyright (C) 2022 Altair Engineering Inc. ("Holder")
# Model is licensed by Holder under CC BY-NC 4.0
# (https://creativecommons.org/licenses/by-nc/4.0/legalcode).
##========================================================================================
##
## Radioss Input Deck Generated by HyperMesh Version  : 11.0.0.101-HWDesktop_NVH
## Generated using HyperMesh-Radioss Template Version : HW11.0.101-HWDesktop_NVH
## Date: 10-19-2012   Time: 14:17:11
##
##========================================================================================
## 
/BEGIN
Test_traction                                                                   
       110         0
                 1.0                 1.0                 1.0
                 1.0                 1.0                 1.0
##
##
##--------------------------------------------------------------------------------------------------
## Input-Output Flags
##--------------------------------------------------------------------------------------------------
/IOFLAG
         5                   0        -1         3         0         0                              
##--------------------------------------------------------------------------------------------------
## Material Law No 12. COMPOSITE MATERIAL
##--------------------------------------------------------------------------------------------------
/MAT/LAW12/1
3D_Fil                                                                                              
             0.00144
            100000.0                 2.0                 2.0
                 0.0                 0.0                 0.0
                0.05                 0.5                 0.5
1.00000000000000E+30                 0.0                 0.0                0.05
                 0.0                 1.0       10000000000.0
                 0.0                 0.0                 0.0                 0.0
                 0.0                 0.0                 0.0                 0.0
                 0.0                 0.0                 0.0                 0.0
                 0.0                 0.0                 0.0                 0.0          
##--------------------------------------------------------------------------------------------------
## NODES
##--------------------------------------------------------------------------------------------------
/NODE
        14                 0.0                 0.0                 0.0
        15                 0.0                 1.0                 0.0
        16                 0.0                 1.0                 1.0
        17                 0.0                 0.0                 1.0
        18                 1.0                 0.0                 0.0
        19                 1.0                 1.0                 0.0
        20                 1.0                 1.0                 1.0
        21                 1.0                 0.0                 1.0
##--------------------------------------------------------------------------------------------------
## Boundary Conditions
##--------------------------------------------------------------------------------------------------
##HWCOLOR loadcollectors 1 11
/BCS/1
Blocage_Nodes                                                                                       
   111 111         0         2
/GRNOD/NODE/2
Blocage                                                                                             
        14        15        16        17
##HWCOLOR loadcollectors 4 11
/BCS/4
Guidage_Dpcmt_Nodes                                                                                 
   011 111                   1
/GRNOD/NODE/1
Dpcmt                                                                                               
        18        19        20        21
##--------------------------------------------------------------------------------------------------
## Solid Elements (Hexaedron)
##--------------------------------------------------------------------------------------------------
/BRICK/3
         2        14        15        16        17        18        19        20        21
##--------------------------------------------------------------------------------------------------
## Orthotropic Solid Property Set (pid 6)
##--------------------------------------------------------------------------------------------------
/PROP/SOL_ORTH/1
Fil                                                                                                 
        24         0                   0                                                            
                 1.1                0.05                 0.1
                 1.0                 0.0                 0.0         0         0                    
                90.0
           1000000.0         1
##--------------------------------------------------------------------------------------------------
## Functions
##--------------------------------------------------------------------------------------------------
##HWCOLOR curves 1 27
/FUNCT/1
Dpcmt_Nodes                                                                                         
                 0.0                 0.0
                 1.0                 1.0
##--------------------------------------------------------------------------------------------------
## Imposed Displacements
##--------------------------------------------------------------------------------------------------
##HWCOLOR loadcollectors 3 11
/IMPDISP/3
Dpcmt_Nodes                                                                                         
         1         X         0         0         1         0
1.00000000000000    1.00000000000000                     0.01.00000000000000E+31
##--------------------------------------------------------------------------------------------------
## Sets
##--------------------------------------------------------------------------------------------------
##--------------------------------------------------------------------------------------------------
## Parts
##--------------------------------------------------------------------------------------------------
##HWCOLOR components 3 11
/PART/3
1                                                                                                   
         1         1                              
##------------------------------------------------------------------------------
## End Of Radioss Block Deck
##------------------------------------------------------------------------------
#include qadiags.inc
/END
