#RADIOSS STARTER
# Copyright (C) 2024 Altair Engineering Inc. ("Holder")
# Model is licensed by Holder under CC BY-NC 4.0
# (https://creativecommons.org/licenses/by-nc/4.0/legalcode).
# Copyright (C) 2022 Altair Engineering Inc. ("Holder")
# Model is licensed by Holder under CC BY-NC 4.0
# (https://creativecommons.org/licenses/by-nc/4.0/legalcode).
#--------------------------------------------------------------------------------------------------|
#- RADIOSS DECK WRITTEN BY HyperCrash
#HyperCrash 2019.1 (64 bits) 
#Mon Mar  9 11:15:35 2020
#-
# INPUT DECK / GENERATED BY  MODEDIT V4.1g
#
#DATE	Wed Dec 13 19:13:24 2000
#
#--1---|---2---|---3---|---4---|---5---|---6---|---7---|---8---|---9---|--10---|
#
#-
#- DATE	Mon Mar  9 11:15:35 2020
#--------------------------------------------------------------------------------------------------|
#---1----|----2----|----3----|----4----|----5----|----6----|----7----|----8----|----9----|---10----|
/BEGIN
LAW28
      2019         0
                  kg                  mm                  ms
                  kg                  mm                  ms
#---1----|----2----|----3----|----4----|----5----|----6----|----7----|----8----|----9----|---10----|
#-  1. CONTROL CARDS:
#---1----|----2----|----3----|----4----|----5----|----6----|----7----|----8----|----9----|---10----|
/TITLE
TEST 1 ELEMENT 3D 8 PT INT
#---1----|----2----|----3----|----4----|----5----|----6----|----7----|----8----|----9----|---10----|
#include qadiags.inc
#---1----|----2----|----3----|----4----|----5----|----6----|----7----|----8----|----9----|---10----|
/RANDOM
#       Random-Noise                Seed
               0.001                   0
#---1----|----2----|----3----|----4----|----5----|----6----|----7----|----8----|----9----|---10----|
/SPMD
#   DOMDEC     Nproc              Dkword             Nthread
         0         1                   0                   0
#---1----|----2----|----3----|----4----|----5----|----6----|----7----|----8----|----9----|---10----|
/IOFLAG
#     IPRI               IGTYP     IOUTP    IOUTYY   IROOTYY     IDROT
         5                   0         0         0         0         0
#---1----|----2----|----3----|----4----|----5----|----6----|----7----|----8----|----9----|---10----|
/ANALY
#    N2D3D             IPARITH      ISUB
         0                   0         0
#---1----|----2----|----3----|----4----|----5----|----6----|----7----|----8----|----9----|---10----|
/DEF_SOLID
#  I_SOLID    ISMSTR             ISTRAIN                                  IFRAME
         1         0                   0                                       0
#---1----|----2----|----3----|----4----|----5----|----6----|----7----|----8----|----9----|---10----|
/DEF_SHELL
#   ISHELL    ISMSTR    ITHICK     IPLAS   ISTRAIN                        I_SH3N     IDRIL
         1         0         0         0         1                             1         0
#---1----|----2----|----3----|----4----|----5----|----6----|----7----|----8----|----9----|---10----|
/SHFRA/V4
#---1----|----2----|----3----|----4----|----5----|----6----|----7----|----8----|----9----|---10----|
#-  2. MATERIALS:
#---1----|----2----|----3----|----4----|----5----|----6----|----7----|----8----|----9----|---10----|
/MAT/LAW28/1
no_named_mat_1
#              RHO_I
       7.80000038E-5                   0
#               E_11                E_22                E_33
           6.4289999           6.4289999           6.4289999
#               G_12                G_23                G_31
          2.49999999          2.49999999          2.49999999
# fun_ID11  fun_ID22  fun_ID33    Iflag1            Fscale11            Fscale22            Fscale33
         1         1         1         0                   0                   0                   0
#          Eps_max11           Eps_max22           Eps_max33
                   0                   0                   0
# fun_ID12  fun_ID23  fun_ID31    Iflag2            Fscale12            Fscale23            Fscale31
         1         1         1         0                   0                   0                   0
#          Eps_max12           Eps_max23           Eps_max31
                   0                   0                   0
#---1----|----2----|----3----|----4----|----5----|----6----|----7----|----8----|----9----|---10----|
#-  3. NODES:
#---1----|----2----|----3----|----4----|----5----|----6----|----7----|----8----|----9----|---10----|
/NODE
         1                   0                   0                   0
         2                 100                   0                   0
         3                 100                 100                   0
         4                   0                 100                   0
         5                   0                   0                 100
         6                 100                   0                 100
         7                 100                 100                 100
         8                   0                 100                 100
         9                   0                   0              100.01
#---1----|----2----|----3----|----4----|----5----|----6----|----7----|----8----|----9----|---10----|
#-  4. BOUNDARY CONDITIONS:
#---1----|----2----|----3----|----4----|----5----|----6----|----7----|----8----|----9----|---10----|
/BCS/1
bas
#  Tra rot   skew_ID  grnod_ID
   001 000         0         2
/GRNOD/NODE/2
bas
         1         2         3         4
#---1----|----2----|----3----|----4----|----5----|----6----|----7----|----8----|----9----|---10----|
#-  5. PARTS:
#---1----|----2----|----3----|----4----|----5----|----6----|----7----|----8----|----9----|---10----|
/PART/1
solid 8 pt
         1         1         0
#---1----|----2----|----3----|----4----|----5----|----6----|----7----|----8----|----9----|---10----|
# BRICK elements of /PART/1/solid 8 pt:
#---1----|----2----|----3----|----4----|----5----|----6----|----7----|----8----|----9----|---10----|
/BRICK/1
         1         1         2         3         4         5         6         7         8
#---1----|----2----|----3----|----4----|----5----|----6----|----7----|----8----|----9----|---10----|
#-  6. GEOMETRICAL SETS:
#---1----|----2----|----3----|----4----|----5----|----6----|----7----|----8----|----9----|---10----|
/PROP/TYPE6/1
solid 8 pt
#   Isolid    Ismstr               Icpre               Inpts              Iframe                  dn
         0         0                   0                   0                   0                   0
#                q_a                 q_b                   h
                   0                   0                   0
#                 Vx                  Vy                  Vz   skew_ID        Ip     Iorth
                   0                   0                   0         0         1         0
#                phi
                  90
#             dt_min   Istrain      Ihkt
                   0         0         0
#---1----|----2----|----3----|----4----|----5----|----6----|----7----|----8----|----9----|---10----|
#-  7. FUNCTIONS:
#---1----|----2----|----3----|----4----|----5----|----6----|----7----|----8----|----9----|---10----|
/FUNCT/1
function_1
#                  X                   Y
        -10000000000         10000000000
         10000000000         10000000000
#---1----|----2----|----3----|----4----|----5----|----6----|----7----|----8----|----9----|---10----|
#-  8. RIGID WALLS:
#---1----|----2----|----3----|----4----|----5----|----6----|----7----|----8----|----9----|---10----|
/RWALL/PLANE/9
plaque
#  node_ID     Slide grnod_ID1 grnod_ID2
         9         0         0         0
#           D_search                fric            Diameter                ffac       ifq
                  30                   0                   0                   0         0
#               Mass                VX_0                VY_0                VZ_0
              200000                   0                   0                  -5
#               X_M1                Y_M1                Z_M1
                   0                   0                   0
#---1----|----2----|----3----|----4----|----5----|----6----|----7----|----8----|----9----|---10----|
#-  9. TIME HISTORIES:
#---1----|----2----|----3----|----4----|----5----|----6----|----7----|----8----|----9----|---10----|
/TH/PART/1
Part selection
#     var1      var2      var3      var4      var5      var6      var7      var8      var9     var10
DEF       
#     Obj1      Obj2      Obj3      Obj4      Obj5      Obj6      Obj7      Obj8      Obj9     Obj10
         1
#---1----|----2----|----3----|----4----|----5----|----6----|----7----|----8----|----9----|---10----|
/TH/NODE/2
TH nodes
#     var1      var2      var3      var4      var5      var6      var7      var8      var9     var10
DEF       
#    NODid     Iskew                                           NODname
         1         0                                                                                
         2         0                                                                                
         3         0                                                                                
         4         0                                                                                
         5         0                                                                                
         6         0                                                                                
         7         0                                                                                
         8         0                                                                                
         9         0                                                                                
#---1----|----2----|----3----|----4----|----5----|----6----|----7----|----8----|----9----|---10----|
/TH/BRIC/3
TH SOLID
#     var1      var2      var3      var4      var5      var6      var7      var8      var9     var10
DEF       
#     Elid                                                      Elname
         1          SOLID                                                                           
#---1----|----2----|----3----|----4----|----5----|----6----|----7----|----8----|----9----|---10----|
/TH/RWALL/4
Rigid walls
#     var1      var2      var3      var4      var5      var6      var7      var8      var9     var10
DEF       
#     Obj1      Obj2      Obj3      Obj4      Obj5      Obj6      Obj7      Obj8      Obj9     Obj10
         9
#---1----|----2----|----3----|----4----|----5----|----6----|----7----|----8----|----9----|---10----|
/END
#---1----|----2----|----3----|----4----|----5----|----6----|----7----|----8----|----9----|---10----|
