#RADIOSS STARTER
# Copyright (C) 2024 Altair Engineering Inc. ("Holder")
# Model is licensed by Holder under CC BY-NC 4.0
# (https://creativecommons.org/licenses/by-nc/4.0/legalcode).
#--------------------------------------------------------------------------------------------------|
#---1----|----2----|----3----|----4----|----5----|----6----|----7----|----8----|----9----|---10----|
/BEGIN
test_torsion_orthstrain_shell                                                    
      2023         0
                  Mg                  mm                   s
                  Mg                  mm                   s
#---1----|----2----|----3----|----4----|----5----|----6----|----7----|----8----|----9----|---10----|
#-  1. CONTROL CARDS:
#---1----|----2----|----3----|----4----|----5----|----6----|----7----|----8----|----9----|---10----|
/TITLE
test_torsion_orthstrain_shell
#---1----|----2----|----3----|----4----|----5----|----6----|----7----|----8----|----9----|---10----|
#-  2. MATERIALS:
#---1----|----2----|----3----|----4----|----5----|----6----|----7----|----8----|----9----|---10----|
/MAT/PLAS_JOHNS/1
Steel
#              RHO_I
              7.8E-9                   0
#                  E                  Nu     Iflag
              210000                  .3         0
#                  a                   b                   n           EPS_p_max            SIG_max0
                 400                 600                  .5                   0                   0
#                  c           EPS_DOT_0       ICC   Fsmooth               F_cut               Chard
                .001               1E-06         0         1               10000                   0
#                  m              T_melt              rhoC_p                 T_r
                   0                   0                   0                   0
/FAIL/ORTHSTRAIN/1
#                            Pthick_fail                                                      Strdef
                                     0.8                                                           1
#    EPSILON_DOT_REF                FCUT        
                 1.1              12500.
#   fct_el           Fscale_el              El_ref     
      3000                 4.2                10.0
#           eps11d_t            eps11f_t   fct_11t            eps11d_c            eps11f_c   fct_11c
                0.01                0.05      1000               0.075                0.13      2000        
#           eps22d_t            eps22f_t   fct_22t            eps22d_c            eps22f_c   fct_22c
                0.02                0.04      1000               0.072               0.145      2000        
#           eps33d_t            eps33f_t   fct_33t            eps33d_c            eps33f_c   fct_33c
                0.01                0.05      1000                0.31                 0.6      2000        
#           eps12d_t            eps12f_t   fct_12t            eps12d_c            eps12f_c   fct_12c
               0.005               0.026      1000               0.003               0.035      2000       
#           eps23d_t            eps23f_t   fct_23t            eps23d_c            eps23f_c   fct_23c
               0.007               0.032      1000               0.004               0.036      2000       
#           eps31d_t            eps31f_t   fct_31t            eps31d_c            eps31f_c   fct_31c
               0.008               0.033      1000               0.005               0.041      2000       
#  Fail_ID 
     
#---1----|----2----|----3----|----4----|----5----|----6----|----7----|----8----|----9----|---10----|
/FUNCT/1000
eps11t
#                  X                   Y
                  0.                   1
                  1.                1.25
                 1.2                1.50                                                          
              1.0e20                3.00                                                            
/FUNCT/2000
eps11c
#                  X                   Y
                  0.                   1
                 .05                 1.1
                 .06                1.12                                                            
              1.0e20                1.85           
/FUNCT/3000
el_size
#                  X                   Y
                 0.1                   1
                 0.5                 0.9
                 1.0                 0.8                                                            
                 5.0                0.75    
#---1----|----2----|----3----|----4----|----5----|----6----|----7----|----8----|----9----|---10----|
#-  3. NODES:
#---1----|----2----|----3----|----4----|----5----|----6----|----7----|----8----|----9----|---10----|
/NODE
         3                   0                  40                   0
         4    -5.0133293425722    39.6845880525791                   0
         5    -9.9475954865942    38.7433264451452                   0
         6    -14.724982107387    37.1910594355301                   0
         7    -19.270146964069    35.0522672017545                   0
         8    -23.511410091699    32.3606797749979                   0
         9    -27.381884237148    29.1587450968565                   0
        10    -30.820529711032    25.4969595899476                   0
        11    -33.773117020081    21.4330717991599                   0
        12    -36.193082098641    17.0311716626029                   0
        13    -38.042260651806    12.3606797749979                   0
        14    -39.291490029148    7.49525258342899                   0
        15    -39.921069137131    2.51162078117254                   0
        16    -39.921069137131    -2.5116207811725                   0
        17    -39.291490029148     -7.495252583429                   0
        18    -38.042260651806    -12.360679774998                   0
        19    -36.193082098641    -17.031171662603                   0
        20    -33.773117020081     -21.43307179916                   0
        21    -30.820529711032    -25.496959589948                   0
        22    -27.381884237148    -29.158745096857                   0
# ... 1032 like lines cut
#---1----|----2----|----3----|----4----|----5----|----6----|----7----|----8----|----9----|---10----|
#-  4. BOUNDARY CONDITIONS:
#---1----|----2----|----3----|----4----|----5----|----6----|----7----|----8----|----9----|---10----|
/BCS/1
Lower
#  Tra rot   skew_ID  grnod_ID
   111 111         0         3
/GRNOD/NODE/3
Lower
      1054
#---1----|----2----|----3----|----4----|----5----|----6----|----7----|----8----|----9----|---10----|
/BCS/2
Upper
#  Tra rot   skew_ID  grnod_ID
   110 110         0         4
/GRNOD/NODE/4
Upper
      1053
#---1----|----2----|----3----|----4----|----5----|----6----|----7----|----8----|----9----|---10----|
#-  5. PARTS:
#---1----|----2----|----3----|----4----|----5----|----6----|----7----|----8----|----9----|---10----|
/PART/1
Cylinder
         1         1         0
#---1----|----2----|----3----|----4----|----5----|----6----|----7----|----8----|----9----|---10----|
# SHELL elements of /PART/1/Cylinder:
#---1----|----2----|----3----|----4----|----5----|----6----|----7----|----8----|----9----|---10----|
/SHELL/1
         1       186       189       191       185
         2       185       191       181       182
         3       189       190       192       191
         4       191       192       180       181
         5       190       173       174       192
         6       192       174       175       180
         7       162       163       193       188
         8       188       193       194       187
         9       187       194       189       186
        10       171       195       164       165
        11       195       193       163       164
        12       173       190       196       172
        13       172       196       195       171
        14       190       189       194       196
        15       196       194       193       195
        16       147       197       199       146
        17       146       199       184       145
        18       197       198       200       199
        19       199       200       183       184
        20       198       186       185       200
# ... 980 like lines cut
#---1----|----2----|----3----|----4----|----5----|----6----|----7----|----8----|----9----|---10----|
#-  6. GEOMETRICAL SETS:
#---1----|----2----|----3----|----4----|----5----|----6----|----7----|----8----|----9----|---10----|
/PROP/SHELL/1
New PROP 1
#   Ishell    Ismstr     Ish3n    Idrill                            P_thick_fail
        24         4         0         0                                       0
#                 hm                  hf                  hr                  dm                  dn
                   0                   0                   0                   0                   0
#        N   Istrain               Thick              Ashear              Ithick     Iplas
         5         0                   3                   0                   1         1
#---1----|----2----|----3----|----4----|----5----|----6----|----7----|----8----|----9----|---10----|
#-  7. FUNCTIONS:
#---1----|----2----|----3----|----4----|----5----|----6----|----7----|----8----|----9----|---10----|
/FUNCT_PYTHON/3
# titi
@requires_node("toto",103)
def myfun2(x,toto):
    #CX_101 VX_102 
    cx = CX_103
    cy = CY_103
    cz = CZ_103
    #print(COORDINATES[103])
    #cx,cy,cz = getEntity('coordinates',toto)
    return x

/FUNCT_PYTHON/1
def myfun(x):
    #if x < 0 return 0
    #else if x > 1 return 1
    #else return y = d*d*d*(10-14*d+6*d*d) where d = x 
    if x <= 0:
        return 0
    elif x >= 1:
        return 1
    else:
        d = myfun2(x) # it is possible to call other functions within a function
        return d*d*d*(10-15*d+6*d*d)


#---1----|----2----|----3----|----4----|----5----|----6----|----7----|----8----|----9----|---10----|
/FUNCT/2
mesh size dependency
#                  X                   Y
                   0                   1
                   1                   1
                   5                 .75
                  10                 .75
#---1----|----2----|----3----|----4----|----5----|----6----|----7----|----8----|----9----|---10----|
#-  8. RIGID BODIES:
#---1----|----2----|----3----|----4----|----5----|----6----|----7----|----8----|----9----|---10----|
/RBODY/1
Upper
#     RBID     ISENS     NSKEW    ISPHER                MASS   Gnod_id     IKREM      ICOG   Surf_id
      1053         0         0         0                   0         1         0         0         0
#                Jxx                 Jyy                 Jzz
                   0                   0                   0
#                Jxy                 Jyz                 Jxz
                   0                   0                   0
#  Ioptoff               Ifail
         0         0         0
/GRNOD/NODE/1
Upper
        72        73        74        75        76        77        78        79        80        81
        82        83        84        85        86        87        88        89        90        91
        92        93        94        95        96        97        98        99       100       101
       102       103       104       105       106       107       108       109       110       111
       112       113       114       115       116       117       118       119       120       121
#---1----|----2----|----3----|----4----|----5----|----6----|----7----|----8----|----9----|---10----|
/RBODY/2
Lower
#     RBID     ISENS     NSKEW    ISPHER                MASS   Gnod_id     IKREM      ICOG   Surf_id
      1054         0         0         0                   0         2         0         0         0
#                Jxx                 Jyy                 Jzz
                   0                   0                   0
#                Jxy                 Jyz                 Jxz
                   0                   0                   0
#  Ioptoff               Ifail
         0         0         0
/GRNOD/NODE/2
Lower
         3         4         5         6         7         8         9        10        11        12
        13        14        15        16        17        18        19        20        21        22
        23        24        25        26        27        28        29        30        31        32
        33        34        35        36        37        38        39        40        41        42
        43        44        45        46        47        48        49        50        51        52
#---1----|----2----|----3----|----4----|----5----|----6----|----7----|----8----|----9----|---10----|
#-  9. IMPOSED DISPLACEMENTS:
#---1----|----2----|----3----|----4----|----5----|----6----|----7----|----8----|----9----|---10----|
/IMPDISP/1
translation
#   Ifunct       DIR     Iskew   Isensor   Gnod_id     Frame     Icoor
         1         Z         0         0         4         0         0
#            Scale_x             Scale_y              Tstart               Tstop
                 .05                   5                   0                   0
#---1----|----2----|----3----|----4----|----5----|----6----|----7----|----8----|----9----|---10----|
/IMPDISP/2
Rotation
#   Ifunct       DIR     Iskew   Isensor   Gnod_id     Frame     Icoor
         1        ZZ         0         0         4         0         0
#            Scale_x             Scale_y              Tstart               Tstop
                 .05                1.57                   0                   0
#---1----|----2----|----3----|----4----|----5----|----6----|----7----|----8----|----9----|---10----|
#- 10. TIME HISTORIES:
#---1----|----2----|----3----|----4----|----5----|----6----|----7----|----8----|----9----|---10----|
/TH/RBODY/1
TH RBODY
#     var1      var2      var3      var4      var5      var6      var7      var8      var9     var10
DEF       
#     Obj1      Obj2      Obj3      Obj4      Obj5      Obj6      Obj7      Obj8      Obj9     Obj10
         1         2
#---1----|----2----|----3----|----4----|----5----|----6----|----7----|----8----|----9----|---10----|
/TH/NODE/2
TH NODES
#     var1      var2      var3      var4      var5      var6      var7      var8      var9     var10
DEF       
#    NODid     Iskew                                           NODname
      1053         0Upper                                                                           
      1054         0Lower                                                                           
#---1----|----2----|----3----|----4----|----5----|----6----|----7----|----8----|----9----|---10----|
/END
#---1----|----2----|----3----|----4----|----5----|----6----|----7----|----8----|----9----|---10----|
