#RADIOSS STARTER
# Copyright (C) 2023 Altair Engineering Inc. ("Holder")
# Model is licensed by Holder under CC BY-NC 4.0
# (https://creativecommons.org/licenses/by-nc/4.0/legalcode).
# Copyright (C) 2022 Altair Engineering Inc. ("Holder")
# Model is licensed by Holder under CC BY-NC 4.0
# (https://creativecommons.org/licenses/by-nc/4.0/legalcode).
#--------------------------------------------------------------------------------------------------|
#- RADIOSS DECK WRITTEN BY HyperCrash
#HyperCrash 9.0 (64 bits) 
#Thu Jul 31 10:41:09 2008
#-
#-
#- DATE	Thu Jul 31 10:41:09 2008
#--------------------------------------------------------------------------------------------------|
/BEGIN
SPECT_SUB      
       100         0                   1
                  kg                   m                   s
                                                                 
#---1----|----2----|----3----|----4----|----5----|----6----|----7----|----8----|----9----|---10----|
#/UNIT/LENGTH/m
#/UNIT/MASS/kg
#/UNIT/TIME/s
#---1----|----2----|----3----|----4----|----5----|----6----|----7----|----8----|----9----|---10----|
#-  1. CONTROL CARDS:
#---1----|----2----|----3----|----4----|----5----|----6----|----7----|----8----|----9----|---10----|
/TITLE
Sample
/MEMORY
#   MEMORY                        REAL%%
         0                             0
/SPMD
#   DOMDEC      SPMD              DECMOT
         0         2                   0
/IOFLAG
#     IPRI     IRTYP     IGTYP     IOUTP    IOUTYY   IROOTYY                                 IRTYP_R
         0         0         0         0         0         0                                       0
/ANALY
#    N2D3D     INTEG   IPARITH      ISUB
         0         0         0         0
/DEF_SOLID
#  B_HOURG   B_SSTRN                                                      Iframe
         0         0                                                           0
/DEF_SHELL
#  S_HOURG   S_SSTRN   S_THICK   S_PLAST    S_STRN                        I_SH3N
         0         0         0         0         1                             1
/SHFRA/V4
/RANDOM
#   Random-Noise
                   0
#---1----|----2----|----3----|----4----|----5----|----6----|----7----|----8----|----9----|---10----|
//SUBMODEL/1


#---1----|----2----|----3----|----4----|----5----|----6----|----7----|----8----|----9----|---10----|
#-  2. MATERIALS:
#---1----|----2----|----3----|----4----|----5----|----6----|----7----|----8----|----9----|---10----|
/MAT/PLAS_JOHNS/4
SPECT
#        Init. dens.          Ref. dens.
               .0028                   0
#                  E                  Nu
               71000                 .33
#                  a                   b                   n             Eps_max              sigmax
                 479                 322                 .41                   0                   0
#                  c                EPS0       Icc   Fsmooth               F_CUT
               .0425                .001         0         0                   0
#                  m              T_melt               rhoCp                 T_i
                   0                   0                2.45                   0
#---1----|----2----|----3----|----4----|----5----|----6----|----7----|----8----|----9----|---10----|
/FAIL/JOHNSON/4
#                 D1                  D2                  D3                  D4                eps0
         1.823015705        -1.148610944                  1.
                .001         2         2
#---1----|----2----|----3----|----4----|----5----|----6----|----7----|----8----|----9----|---10----|
#-  3. NODES:
#---1----|----2----|----3----|----4----|----5----|----6----|----7----|----8----|----9----|---10----|
/NODE
     20174                17.5              -.3291               -1.35
     20178                17.5              -.3291                -2.7
     20180                17.5              -.3291               -1.35
     20183                17.5              -.3291               -1.35
     20184                17.5              -.3291                -2.7
     20186                17.5              -.6452               -1.35
     20187                17.5              -.3291                -2.7
     20188                17.5              -.3291               -4.05
     20190                17.5              -.6452                -2.7
     20192                17.5              -.6452               -1.35
     20195                17.5              -.6452               -1.35
     20196                17.5              -.6452                -2.7
     20198                17.5              -.9613               -1.35
     20199                17.5              -.6452                -2.7
     20200                17.5              -.6452               -4.05
     20202                17.5              -.9613                -2.7
     20204                17.5              -.9613               -1.35
     20207                17.5              -.9613               -1.35
     20208                17.5              -.9613                -2.7
     20210                17.5             -1.2774               -1.35
# ... 478 like lines cut
#---1----|----2----|----3----|----4----|----5----|----6----|----7----|----8----|----9----|---10----|
#-  4. BOUNDARY CONDITIONS:
#---1----|----2----|----3----|----4----|----5----|----6----|----7----|----8----|----9----|---10----|
/BCS/6
fix_end_bc
#   trarot   Skew_id   Gnod_id
   100 111         0       111
/GRNOD/GRNOD/111
fix_end_bc
       113
/GRNOD/GRNOD/113
fix_end_bc
       112
/GRNOD/NODE/112
fix_end_bc
     86778     99933
#---1----|----2----|----3----|----4----|----5----|----6----|----7----|----8----|----9----|---10----|
/BCS/7
load_BC
#   trarot   Skew_id   Gnod_id
   000 111         0       114
/GRNOD/GRNOD/114
load_BC
       116
/GRNOD/GRNOD/116
load_BC
       115
/GRNOD/NODE/115
load_BC
     89353     89378    102483    102508
#---1----|----2----|----3----|----4----|----5----|----6----|----7----|----8----|----9----|---10----|
/BCS/8
fix_end_bc
#   trarot   Skew_id   Gnod_id
   100 111         0       125
/GRNOD/GRNOD/125
fix_end_bc
       127
/GRNOD/GRNOD/127
fix_end_bc
       126
/GRNOD/NODE/126
fix_end_bc
    102510    102535    115641    115690
#---1----|----2----|----3----|----4----|----5----|----6----|----7----|----8----|----9----|---10----|
/BCS/9
load_BC
#   trarot   Skew_id   Gnod_id
   000 111         0       128
/GRNOD/GRNOD/128
load_BC
       130
/GRNOD/GRNOD/130
load_BC
       129
/GRNOD/NODE/129
load_BC
    105110    105135    118240    118265
#---1----|----2----|----3----|----4----|----5----|----6----|----7----|----8----|----9----|---10----|
#-  5. PARTS:
#---1----|----2----|----3----|----4----|----5----|----6----|----7----|----8----|----9----|---10----|
/PART/2
SPECT
         4         4         1
#---1----|----2----|----3----|----4----|----5----|----6----|----7----|----8----|----9----|---10----|
# SHELL elements of /PART/2/SPECT:
#---1----|----2----|----3----|----4----|----5----|----6----|----7----|----8----|----9----|---10----|
/SHELL/2
   1000000    102508     99933     86778     89378                                                 0
#---1----|----2----|----3----|----4----|----5----|----6----|----7----|----8----|----9----|---10----|
#-  6. SUBSETS:
#---1----|----2----|----3----|----4----|----5----|----6----|----7----|----8----|----9----|---10----|
/SUBSET/1
UNEL
#---1----|----2----|----3----|----4----|----5----|----6----|----7----|----8----|----9----|---10----|
/SUBSET/5
DEUXELCC
         1
#---1----|----2----|----3----|----4----|----5----|----6----|----7----|----8----|----9----|---10----|
#-  7. GEOMETRICAL SETS:
#---1----|----2----|----3----|----4----|----5----|----6----|----7----|----8----|----9----|---10----|
/PROP/TYPE1/4
8-int-point_elem
#   Ishell    Ismstr     Ish3n
         4         4         0
#                 hm                  hf                  hr                  dm                  dn
                   0                   0                   0                   0                   0
#        N   Istrain               Thick              Ashear              Ithick     Iplas
         3         1                   1                   0                   1         1
#---1----|----2----|----3----|----4----|----5----|----6----|----7----|----8----|----9----|---10----|
#-  8. FUNCTIONS:
#---1----|----2----|----3----|----4----|----5----|----6----|----7----|----8----|----9----|---10----|
/FUNCT/1
x_displ_vs_time_1m
#                  X                   Y
                   0                   0                                                            
                 .02                   0                                                            
                1.02                   5                                                            
               10.02                  50                                                            
#---1----|----2----|----3----|----4----|----5----|----6----|----7----|----8----|----9----|---10----|
/FUNCT/5
f_vs_p
#                  X                   Y
                -100                   1                                                            
                   0                   1                                                            
          50.0198364                   1                                                            
          100.207565                   1                                                            
          121.597618          .959656179                                                            
          125.011284             .968162                                                            
          128.151855          .974494219                                                            
          130.996613          .979024768                                                            
          133.594696          .982094109                                                            
          135.971222          .983928382                                                            
          138.148346          .984727025                                                            
          140.129089          .984577477                                                            
          141.947144          .983735502                                                            
          143.629974          .982361674                                                            
          145.193207          .980575144                                                            
          146.644501          .978434026                                                            
           148.00296          .976087689                                                            
          149.288895          .973614812                                                            
             150.513          .971077502                                                            
          151.678406          .968503773                                                            
# ... 73 like lines cut
#---1----|----2----|----3----|----4----|----5----|----6----|----7----|----8----|----9----|---10----|
/FUNCT/6
rivet_c_force
#                  X                   Y
                   0                3113                                                            
                  10                3113                                                            
#---1----|----2----|----3----|----4----|----5----|----6----|----7----|----8----|----9----|---10----|
/FUNCT/7
x_displ_vs_time_1m
#                  X                   Y
                   0                   0                                                            
                   1                   1                                                            
                  10                  10                                                            
#---1----|----2----|----3----|----4----|----5----|----6----|----7----|----8----|----9----|---10----|
/FUNCT/14
compression
#                  X                   Y
           42.011879                   1                                                            
          82.1452484                   1                                                            
          119.442947          .976387382                                                            
          122.462051          .962041795                                                            
          125.164124          .968482494                                                            
          127.670731          .973618805                                                            
            130.0047          .977608442                                                            
          132.174835          .980585277                                                            
          134.189682          .982672691                                                            
          136.063217          .983985603                                                            
          137.806213          .984629154                                                            
          139.429779          .984698594                                                            
          140.945801          .984282196                                                            
          142.364487            .9834584                                                            
          143.695038          .982300341                                                            
          144.947418          .980871677                                                            
          146.130341          .979230106                                                            
          147.251953          .977427244                                                            
           148.31926          .975509048                                                            
          149.339249           .97351563                                                            
# ... 229 like lines cut
#---1----|----2----|----3----|----4----|----5----|----6----|----7----|----8----|----9----|---10----|
/FUNCT/15
x_displ_vs_time_1m
#                  X                   Y
                   0                   0                                                            
                 .02                   0                                                            
                1.02                   5                                                            
               10.02                  50                                                            
#---1----|----2----|----3----|----4----|----5----|----6----|----7----|----8----|----9----|---10----|
/FUNCT/17
Material
#                  X                   Y
                   0          376.315789                                                            
                .002          382.565265                                                            
                .004          388.631363                                                            
                .006          394.520665                                                            
                .008           400.23959                                                            
                 .01          405.794389                                                            
                .012          411.191151                                                            
                .014          416.435798                                                            
                .016          421.534086                                                            
                .018          426.491607                                                            
                 .02          431.313789                                                            
                .022          436.005894                                                            
                .024          440.573017                                                            
                .026          445.020091                                                            
                .028          449.351881                                                            
                 .03          453.572989                                                            
                .032          457.687852                                                            
                .034           461.70074                                                            
                .036          465.615759                                                            
                .038          469.436851                                                            
# ... 55 like lines cut
#---1----|----2----|----3----|----4----|----5----|----6----|----7----|----8----|----9----|---10----|
/FUNCT/18
Material
#                  X                   Y
                   0          357.894737                                                            
                .002          367.302393                                                            
                .004          375.929454                                                            
                .006          383.844601                                                            
                .008          391.112055                                                            
                 .01          397.791758                                                            
                .012          403.939545                                                            
                .014          409.607324                                                            
                .016          414.843244                                                            
                .018          419.691858                                                            
                 .02          424.194294                                                            
                .022          428.388408                                                            
                .024          432.308943                                                            
                .026          435.987683                                                            
                .028          439.453601                                                            
                 .03          442.733009                                                            
                .032          445.849694                                                            
                .034          448.825063                                                            
                .036          451.678278                                                            
                .038          454.426385                                                            
# ... 82 like lines cut
#---1----|----2----|----3----|----4----|----5----|----6----|----7----|----8----|----9----|---10----|
/FUNCT/20
rivet_c_force
#                  X                   Y
                   0                3113                                                            
                  10                3113                                                            
#---1----|----2----|----3----|----4----|----5----|----6----|----7----|----8----|----9----|---10----|
/FUNCT/21
x_displ_vs_time_1m
#                  X                   Y
                   0                   0                                                            
                   1                   1                                                            
                  10                  10                                                            
#---1----|----2----|----3----|----4----|----5----|----6----|----7----|----8----|----9----|---10----|
#-  9. IMPOSED DISPLACEMENTS:
#---1----|----2----|----3----|----4----|----5----|----6----|----7----|----8----|----9----|---10----|
/IMPDISP/2
x_SPECT
#   Ifunct       DIR     Iskew   Isensor   Gnod_id
        21         X         0         0       103
#            Scale_x             Scale_y              Tstart               Tstop
                   0                   1                   0                   0
/GRNOD/NODE/103
load_nodes
     89378    102508
#---1----|----2----|----3----|----4----|----5----|----6----|----7----|----8----|----9----|---10----|
#- 10. TIME HISTORIES:
#---1----|----2----|----3----|----4----|----5----|----6----|----7----|----8----|----9----|---10----|
/TH/PART/9
PARTS
#     var1      var2      var3      var4      var5      var6      var7      var8      var9     var10
DEF       
#     Obj1      Obj2      Obj3      Obj4      Obj5      Obj6      Obj7      Obj8      Obj9     Obj10
         2
#---1----|----2----|----3----|----4----|----5----|----6----|----7----|----8----|----9----|---10----|
/TH/SHEL/11
spect
#     var1      var2      var3      var4      var5      var6      var7      var8      var9     var10
DEF       
#    NODid                                                     NODname
   1000000          tens                                                                            
#---1----|----2----|----3----|----4----|----5----|----6----|----7----|----8----|----9----|---10----| 
//ENDSUB  
#---1----|----2----|----3----|----4----|----5----|----6----|----7----|----8----|----9----|---10----|
#include qadiags.inc
/END
#---1----|----2----|----3----|----4----|----5----|----6----|----7----|----8----|----9----|---10----|
