#RADIOSS STARTER
# Copyright (C) 2023 Altair Engineering Inc. ("Holder")
# Model is licensed by Holder under CC BY-NC 4.0
# (https://creativecommons.org/licenses/by-nc/4.0/legalcode).
# Copyright (C) 2022 Altair Engineering Inc. ("Holder")
# Model is licensed by Holder under CC BY-NC 4.0
# (https://creativecommons.org/licenses/by-nc/4.0/legalcode).
#--------------------------------------------------------------------------------------------------|
#- RADIOSS DECK WRITTEN BY HyperCrash
#HyperCrash 2019.1 (64 bits) 
#Fri Sep 18 17:12:01 2020
#-
# INPUT DECK / GENERATED BY  MODEDIT V4.1g
#
#DATE	Mon Dec 11 17:02:40 2000
#
#	Tue Oct 10 12:09:12 1995
#
#--1---|---2---|---3---|---4---|---5---|---6---|---7---|---8---|---9---|--10---|
#
#-
#- DATE	Fri Sep 18 17:12:01 2020
#--------------------------------------------------------------------------------------------------|
#---1----|----2----|----3----|----4----|----5----|----6----|----7----|----8----|----9----|---10----|
/BEGIN
JETV41B                                                                         
      2019         0
                  kg                  mm                  ms
                  kg                  mm                  ms
#---1----|----2----|----3----|----4----|----5----|----6----|----7----|----8----|----9----|---10----|
#-  1. CONTROL CARDS:
#---1----|----2----|----3----|----4----|----5----|----6----|----7----|----8----|----9----|---10----|
/TITLE
test jetting en version 41 bloc
#---1----|----2----|----3----|----4----|----5----|----6----|----7----|----8----|----9----|---10----|
#include qadiags.inc
#---1----|----2----|----3----|----4----|----5----|----6----|----7----|----8----|----9----|---10----|
/RANDOM
#       Random-Noise                Seed
                   0                   0
#---1----|----2----|----3----|----4----|----5----|----6----|----7----|----8----|----9----|---10----|
/SPMD
#   DOMDEC     Nproc              Dkword             Nthread
         0         0                   0                   0
#---1----|----2----|----3----|----4----|----5----|----6----|----7----|----8----|----9----|---10----|
/IOFLAG
#     IPRI               IGTYP     IOUTP    IOUTYY   IROOTYY     IDROT
         5                   0         0         0         0         0
#---1----|----2----|----3----|----4----|----5----|----6----|----7----|----8----|----9----|---10----|
/ANALY
#    N2D3D             IPARITH      ISUB
         0                   0         0
#---1----|----2----|----3----|----4----|----5----|----6----|----7----|----8----|----9----|---10----|
/DEF_SOLID
#  I_SOLID    ISMSTR             ISTRAIN                                  IFRAME
         0         0                   0                                       0
#---1----|----2----|----3----|----4----|----5----|----6----|----7----|----8----|----9----|---10----|
/DEF_SHELL
#   ISHELL    ISMSTR    ITHICK     IPLAS   ISTRAIN                        I_SH3N     IDRIL
         0         0         0         0         0                             1         0
#---1----|----2----|----3----|----4----|----5----|----6----|----7----|----8----|----9----|---10----|
/SHFRA/V4
#---1----|----2----|----3----|----4----|----5----|----6----|----7----|----8----|----9----|---10----|
#-  2. MATERIALS:
#---1----|----2----|----3----|----4----|----5----|----6----|----7----|----8----|----9----|---10----|
/MAT/LAW1/1
bidon
#        Init. dens.          Ref. dens.
             8.48E-7                   0
#                  E                  nu
               1E-31                   0
#---1----|----2----|----3----|----4----|----5----|----6----|----7----|----8----|----9----|---10----|
/MAT/LAW1/2
bidon
#        Init. dens.          Ref. dens.
             8.48E-7                   0
#                  E                  nu
               1E-31                   0
#---1----|----2----|----3----|----4----|----5----|----6----|----7----|----8----|----9----|---10----|
/MAT/LAW19/3
AIRBAG FABRIC
#              RHO_I               RHO_O
             8.48E-7                   0
#                E11                 E22                NU12
           .42700001           .42700001                  .3
#                G12                 G23                 G31
                  .1                  .1                  .1
#                R_E                              ZEROSTRESS          FSCALE_POR   SENS_ID
                   1                                       0                   0         0
#---1----|----2----|----3----|----4----|----5----|----6----|----7----|----8----|----9----|---10----|
/MAT/LAW19/4
FABRIC
#              RHO_I               RHO_O
             8.48E-7                   0
#                E11                 E22                NU12
           .42700001           .42700001                  .3
#                G12                 G23                 G31
                  .1                  .1                  .1
#                R_E                              ZEROSTRESS          FSCALE_POR   SENS_ID
                   1                                       0                   0         0
#---1----|----2----|----3----|----4----|----5----|----6----|----7----|----8----|----9----|---10----|
#-  3. NODES:
#---1----|----2----|----3----|----4----|----5----|----6----|----7----|----8----|----9----|---10----|
/NODE
     11001            244.8895            49.95389            -234.273
     11002            257.3705            49.95389            -208.318
     11003            269.8165            49.95389            -182.457
     11004            282.3855            49.95389            -156.321
     11005            294.8675            49.95389            -130.366
     11006            223.7535            47.22388            -223.741
     11007            285.1125            46.04389            -93.6756
     11008            307.3135            49.95389            -104.505
     11009            275.9355            47.66388            -121.577
     11010            237.9015            47.48389            -198.154
     11011            252.3075            47.80388            -172.803
     11012            265.6945            48.10389            -149.293
     11013            189.6175            49.95389            -349.172
     11014            200.6175            49.95389            -326.277
     11015            211.7135            49.95389            -303.206
     11016            222.7315            49.95389             -280.32
     11017            233.8275            49.95389            -257.249
     11018            165.9685            45.78389            -337.636
     11019            178.7775            47.07388            -315.068
     11020            191.0265            47.25388            -292.114
# ... 684 like lines cut
#---1----|----2----|----3----|----4----|----5----|----6----|----7----|----8----|----9----|---10----|
#-  4. BOUNDARY CONDITIONS:
#---1----|----2----|----3----|----4----|----5----|----6----|----7----|----8----|----9----|---10----|
/BCS/1
airbag.nas_bcs_123456
#  Tra rot   skew_ID  grnod_ID
   111 111         0         2
/GRNOD/NODE/2
airbag.nas_bcs_123456
     11001     11002     11003     11004     11005     11006     11007     11008     11009     11010
     11011     11012     11013     11014     11015     11016     11017     11018     11019     11020
     11021     11022     11023     11024     11025     11026     11027     11028     11029     11030
     11031
#---1----|----2----|----3----|----4----|----5----|----6----|----7----|----8----|----9----|---10----|
#-  5. PARTS:
#---1----|----2----|----3----|----4----|----5----|----6----|----7----|----8----|----9----|---10----|
/PART/1
SHELL105
         1         1         0
#---1----|----2----|----3----|----4----|----5----|----6----|----7----|----8----|----9----|---10----|
# SH3N elements of /PART/1/SHELL105:
#---1----|----2----|----3----|----4----|----5----|----6----|----7----|----8----|----9----|---10----|
/SH3N/1
      5091     11072     11413     11046
      5104     11060     11059     11401
      6523     11071     11412     11072
      6524     11412     11413     11072
      6525     11070     11411     11071
      6526     11411     11412     11071
      6527     11069     11410     11070
      6528     11410     11411     11070
      6529     11068     11409     11069
      6530     11409     11410     11069
      6531     11067     11408     11068
      6532     11408     11409     11068
      6533     11066     11407     11067
      6534     11407     11408     11067
      6535     11065     11406     11066
      6536     11406     11407     11066
      6537     11064     11405     11065
      6538     11405     11406     11065
      6539     11063     11404     11064
      6540     11404     11405     11064
# ... 6 like lines cut
#---1----|----2----|----3----|----4----|----5----|----6----|----7----|----8----|----9----|---10----|
/PART/2
SHELL104
         2         2         0
#---1----|----2----|----3----|----4----|----5----|----6----|----7----|----8----|----9----|---10----|
# SH3N elements of /PART/2/SHELL104:
#---1----|----2----|----3----|----4----|----5----|----6----|----7----|----8----|----9----|---10----|
/SH3N/2
      5105     11072     11046     11413
      5118     11060     11401     11059
      6547     11071     11072     11412
      6548     11072     11413     11412
      6549     11070     11071     11411
      6550     11071     11412     11411
      6551     11069     11070     11410
      6552     11070     11411     11410
      6553     11068     11069     11409
      6554     11069     11410     11409
      6555     11067     11068     11408
      6556     11068     11409     11408
      6557     11066     11067     11407
      6558     11067     11408     11407
      6559     11065     11066     11406
      6560     11066     11407     11406
      6561     11064     11065     11405
      6562     11065     11406     11405
      6563     11063     11064     11404
      6564     11064     11405     11404
# ... 6 like lines cut
#---1----|----2----|----3----|----4----|----5----|----6----|----7----|----8----|----9----|---10----|
/PART/3
SHELL101
         3         3         0
#---1----|----2----|----3----|----4----|----5----|----6----|----7----|----8----|----9----|---10----|
# SH3N elements of /PART/3/SHELL101:
#---1----|----2----|----3----|----4----|----5----|----6----|----7----|----8----|----9----|---10----|
/SH3N/3
      5119     11120     11033     11045
      5120     11120     11073     11033
      5121     11074     11073     11121
      5122     11074     11253     11073
      5123     11121     11073     11120
      5124     11032     11242     11085
      5125     11085     11242     11084
      5126     11242     11243     11084
      5127     11243     11083     11084
      5128     11243     11244     11083
      5129     11096     11057     11058
      5130     11096     11058     11097
      5131     11095     11056     11057
      5132     11057     11096     11095
      5133     11072     11047     11086
      5134     11072     11046     11047
      5135     11086     11048     11087
      5136     11086     11047     11048
      5137     11087     11048     11088
      5138     11088     11048     11049
# ... 756 like lines cut
#---1----|----2----|----3----|----4----|----5----|----6----|----7----|----8----|----9----|---10----|
/PART/4
SHELL102
         4         4         0
#---1----|----2----|----3----|----4----|----5----|----6----|----7----|----8----|----9----|---10----|
# SH3N elements of /PART/4/SHELL102:
#---1----|----2----|----3----|----4----|----5----|----6----|----7----|----8----|----9----|---10----|
/SH3N/4
      5895     11271     11272     11257
      5896     11261     11262     11279
      5897     11314     11263     11315
      5898     11319     11069     11320
      5899     11299     11325     11300
      5900     11308     11331     11309
      5901     11334     11314     11335
      5902     11325     11342     11326
      5903     11340     11334     11347
      5904     11309     11354     11308
      5905     11304     11295     11303
      5906     11364     11260     11365
      5907     11359     11368     11360
      5908     11360     11254     11290
      5909     11357     11294     11295
      5910     11370     11357     11356
      5911     11359     11360     11372
      5912     11370     11356     11355
      5913     11372     11358     11359
      5914     11355     11371     11370
# ... 608 like lines cut
#---1----|----2----|----3----|----4----|----5----|----6----|----7----|----8----|----9----|---10----|
/PART/5
IRBAG ATTACHMENT SPRINGS
      1003         0         0
#---1----|----2----|----3----|----4----|----5----|----6----|----7----|----8----|----9----|---10----|
# SPRING elements of /PART/5/IRBAG ATTACHMENT SPRINGS:
#---1----|----2----|----3----|----4----|----5----|----6----|----7----|----8----|----9----|---10----|
/SPRING/5
     35001     11225     11565                                        
     35002     11235     11575                                        
     35003     11234     11574                                        
     35004     11233     11573                                        
     35005     11232     11572                                        
     35006     11215     11555                                        
#---1----|----2----|----3----|----4----|----5----|----6----|----7----|----8----|----9----|---10----|
/PART/6
IRBAG ATTACHMENT SPRINGS
      1004         0         0
#---1----|----2----|----3----|----4----|----5----|----6----|----7----|----8----|----9----|---10----|
# SPRING elements of /PART/6/IRBAG ATTACHMENT SPRINGS:
#---1----|----2----|----3----|----4----|----5----|----6----|----7----|----8----|----9----|---10----|
/SPRING/6
     35010     11348     11657                                        
     35011     11349     11658                                        
     35012     11350     11659                                        
     35013     11346     11655                                        
     35014     11335     11644                                        
     35015     11315     11642                                        
     35016     11262     11585                                        
#---1----|----2----|----3----|----4----|----5----|----6----|----7----|----8----|----9----|---10----|
/PART/7
IRBAG ATTACHMENT SPRINGS
      1005         0         0
#---1----|----2----|----3----|----4----|----5----|----6----|----7----|----8----|----9----|---10----|
# SPRING elements of /PART/7/IRBAG ATTACHMENT SPRINGS:
#---1----|----2----|----3----|----4----|----5----|----6----|----7----|----8----|----9----|---10----|
/SPRING/7
     35020     11413     11072                                        
     35021     11412     11071                                        
     35022     11411     11070                                        
     35023     11410     11069                                        
     35024     11409     11068                                        
     35025     11408     11067                                        
     35026     11407     11066                                        
     35027     11406     11065                                        
     35028     11405     11064                                        
     35029     11404     11063                                        
     35030     11403     11062                                        
     35031     11402     11061                                        
     35032     11401     11060                                        
#---1----|----2----|----3----|----4----|----5----|----6----|----7----|----8----|----9----|---10----|
#-  6. GEOMETRICAL SETS:
#---1----|----2----|----3----|----4----|----5----|----6----|----7----|----8----|----9----|---10----|
/PROP/TYPE1/1
SHELL105
#   Ishell    Ismstr     Ish3n    Idrill                            P_thick_fail
         0         0         0         0                                       0
#                 hm                  hf                  hr                  dm                  dn
                   0                   0                   0                   0                   0
#        N   Istrain               Thick              Ashear              Ithick     Iplas
         1         0                 .33                   0                   0         0
#---1----|----2----|----3----|----4----|----5----|----6----|----7----|----8----|----9----|---10----|
/PROP/TYPE1/2
SHELL104
#   Ishell    Ismstr     Ish3n    Idrill                            P_thick_fail
         0         0         0         0                                       0
#                 hm                  hf                  hr                  dm                  dn
                   0                   0                   0                   0                   0
#        N   Istrain               Thick              Ashear              Ithick     Iplas
         1         0                 .33                   0                   0         0
#---1----|----2----|----3----|----4----|----5----|----6----|----7----|----8----|----9----|---10----|
/PROP/TYPE9/3
SHELL101
#   Ishell    Ismstr     Ish3n    Idrill                            P_thick_fail
         0         0         0         0                                       0
#                 hm                  hf                  hr                  dm                  dn
                   0          .100000007                   0                 .25                   0
#        N   Istrain               Thick              Ashear              Ithick     Iplas
         1         0               .3302                   0                   0         0
#                 Vx                  Vy                  Vz                 Phi
                   0                   1                   0                   0
#---1----|----2----|----3----|----4----|----5----|----6----|----7----|----8----|----9----|---10----|
/PROP/TYPE9/4
SHELL102
#   Ishell    Ismstr     Ish3n    Idrill                            P_thick_fail
         0         0         0         0                                       0
#                 hm                  hf                  hr                  dm                  dn
                   0          .100000007                   0                 .25                   0
#        N   Istrain               Thick              Ashear              Ithick     Iplas
         1         0               .3302                   0                   0         0
#                 Vx                  Vy                  Vz                 Phi
                   0                   1                   0                   0
#---1----|----2----|----3----|----4----|----5----|----6----|----7----|----8----|----9----|---10----|
/PROP/TYPE4/1003
IRBAG ATTACHMENT SPRINGS
#                  M                               sensor_ID    Isflag     Ileng
                2E-4                                       0         0         0
#                  K                   C                   A                   B                   D
                1E-6                   0                   0                   0                   0
#funct_ID1         H funct_ID2 funct_ID3 funct_ID4                     delta_min           delta_max
         3         0         0         0         0                             0                   0
#            Fscale1                   E             Ascalex             HSCALE4
                   0                   0                   0                   0
#---1----|----2----|----3----|----4----|----5----|----6----|----7----|----8----|----9----|---10----|
/PROP/TYPE4/1004
IRBAG ATTACHMENT SPRINGS
#                  M                               sensor_ID    Isflag     Ileng
                2E-4                                       0         0         0
#                  K                   C                   A                   B                   D
                1E-6                   0                   0                   0                   0
#funct_ID1         H funct_ID2 funct_ID3 funct_ID4                     delta_min           delta_max
         4         0         0         0         0                             0                   0
#            Fscale1                   E             Ascalex             HSCALE4
                   0                   0                   0                   0
#---1----|----2----|----3----|----4----|----5----|----6----|----7----|----8----|----9----|---10----|
/PROP/TYPE4/1005
IRBAG ATTACHMENT SPRINGS
#                  M                               sensor_ID    Isflag     Ileng
                2E-4                                       0         0         0
#                  K                   C                   A                   B                   D
                1E-6                   0                   0                   0                   0
#funct_ID1         H funct_ID2 funct_ID3 funct_ID4                     delta_min           delta_max
         5         0         0         0         0                             0                   0
#            Fscale1                   E             Ascalex             HSCALE4
                   0                   0                   0                   0
#---1----|----2----|----3----|----4----|----5----|----6----|----7----|----8----|----9----|---10----|
#-  7. FUNCTIONS:
#---1----|----2----|----3----|----4----|----5----|----6----|----7----|----8----|----9----|---10----|
/FUNCT/1
function_1
#                  X                   Y
                   0                   0
                 .05                2E-6
                  .1                7E-6
                 .25              4.1E-5
                  .5             1.66E-4
                 .75             3.73E-4
                   1             6.64E-4
                1.25             .001037
                 1.5             .001493
                1.75             .002032
                   2             .002655
                 2.2             .003212
                 2.4             .003823
                 2.6             .004416
                 3.2             .006307
                 3.4             .006946
                   4             .008835
                 4.4             .010072
                 4.9             .011562
                 6.7              .01569
# ... 25 like lines cut
#---1----|----2----|----3----|----4----|----5----|----6----|----7----|----8----|----9----|---10----|
/FUNCT/2
function_2
#                  X                   Y
                   0              307.61
           100000000              307.61
#---1----|----2----|----3----|----4----|----5----|----6----|----7----|----8----|----9----|---10----|
/FUNCT/3
function_3
#                  X                   Y
               -1000                   0
                   0                   0
                  95                   0
                  96                   1
                1000                1000
#---1----|----2----|----3----|----4----|----5----|----6----|----7----|----8----|----9----|---10----|
/FUNCT/4
function_4
#                  X                   Y
               -1000                   0
                   0                   0
                  75                   0
                  76                   1
                1000                1000
#---1----|----2----|----3----|----4----|----5----|----6----|----7----|----8----|----9----|---10----|
/FUNCT/5
function_5
#                  X                   Y
               -1000                   0
                   0                   0
                 101                   0
                 102                   1
                1000                1000
#---1----|----2----|----3----|----4----|----5----|----6----|----7----|----8----|----9----|---10----|
/FUNCT/6
cst=1
#                  X                   Y
        -10000000000                   1
         10000000000                   1
#---1----|----2----|----3----|----4----|----5----|----6----|----7----|----8----|----9----|---10----|
/FUNCT/7
cst=1e-2
#                  X                   Y
               -1E20                 .01
                1E20                 .01
#---1----|----2----|----3----|----4----|----5----|----6----|----7----|----8----|----9----|---10----|
/FUNCT/8
cst=1e-2
#                  X                   Y
               -1E20                 .01
                1E20                 .01
#---1----|----2----|----3----|----4----|----5----|----6----|----7----|----8----|----9----|---10----|
#-  8. MONITORED VOLUMES:
#---1----|----2----|----3----|----4----|----5----|----6----|----7----|----8----|----9----|---10----|
/MONVOL/COMMU/1
CHAMBV31D00_volume_1
#surf_IDex
         3
#            AscaleT             AscaleP             AscaleS             AscaleA             AscaleD
                   0                   0                   0                   0                   0
#                                     Mu                Pext                  T0     Iequi      Ittf
                                      .1           1.0135E-4                   0         0         0
#             Gammai                cpai                cpbi                cpci
               1.667             520.275                   0                   0
#     Njet
         1
#              Gamma                 cpa                 cpb                 cpc
               1.667             520.275                   0                   0
#fct_IDmas     Iflow           Fscalemas   fct_IDt             Fscalet   sens_ID
         1         0                   1         2                   1         0
#     Ijet  node_ID1  node_ID2  node_ID3
         1     11014     11302         0
# fct_IDptfct_pthetafct_pdelta                      Fscalept        Fscaleptheta        Fscalepdelta
         6         7         8                             0                   0                   0
#    Nvent
         1
# surf_IDv               Avent               Bvent               Tstop
         0                 840                   0                   0
#              Tvent               dPdef              dtPdef   fct_IDv             Fscalev   IdtPdef
                1E30                   0                   0         0                   0         0
#  fct_IDt   fct_IDP   fct_IDA                       Fscalet             FscaleP             FscaleA
         0         0         0                             0                   0                   0
# fct_IDt'  fct_IDP'  fct_IDA'                      Fscalet'            FscaleP'            FscaleA'
         0         0         0                             0                   0                   0
#     Nbag
         1
#   bag_ID  surf_IDc              dPCdef                Acom                Tcom             dtPCdef
         2         0                   0              3958.5                1E30                   0
/SURF/PART/3
CHAMBV31D00_volume_1_ext_surf
         2         4
#---1----|----2----|----3----|----4----|----5----|----6----|----7----|----8----|----9----|---10----|
/MONVOL/COMMU/2
CHAMBV31D00_volume_2
#surf_IDex
         4
#            AscaleT             AscaleP             AscaleS             AscaleA             AscaleD
                   0                   0                   0                   0                   0
#                                     Mu                Pext                  T0     Iequi      Ittf
                                      .1           1.0135E-4                   0         0         0
#             Gammai                cpai                cpbi                cpci
               1.667             520.275                   0                   0
#     Njet
         1
#              Gamma                 cpa                 cpb                 cpc
               1.667             520.275                   0                   0
#fct_IDmas     Iflow           Fscalemas   fct_IDt             Fscalet   sens_ID
         0         0                   0         0                   0         0
#     Ijet  node_ID1  node_ID2  node_ID3
         0         0         0         0
#    Nvent
         1
# surf_IDv               Avent               Bvent               Tstop
         0                   0                   0                   0
#              Tvent               dPdef              dtPdef   fct_IDv             Fscalev   IdtPdef
                1E30                2E-7                   0         0                   0         0
#  fct_IDt   fct_IDP   fct_IDA                       Fscalet             FscaleP             FscaleA
         0         0         0                             0                   0                   0
# fct_IDt'  fct_IDP'  fct_IDA'                      Fscalet'            FscaleP'            FscaleA'
         0         0         0                             0                   0                   0
#     Nbag
         1
#   bag_ID  surf_IDc              dPCdef                Acom                Tcom             dtPCdef
         1         0                   0              3958.5                1E30                   0
/SURF/PART/4
CHAMBV31D00_volume_2_ext_surf
         1         3
#---1----|----2----|----3----|----4----|----5----|----6----|----7----|----8----|----9----|---10----|
#-  9. TIME HISTORIES:
#---1----|----2----|----3----|----4----|----5----|----6----|----7----|----8----|----9----|---10----|
/TH/PART/1
Part selection
#     var1      var2      var3      var4      var5      var6      var7      var8      var9     var10
DEF       
#     Obj1      Obj2      Obj3      Obj4      Obj5      Obj6      Obj7      Obj8      Obj9     Obj10
         1         2         3         4
#---1----|----2----|----3----|----4----|----5----|----6----|----7----|----8----|----9----|---10----|
/TH/MONVOL/2
Mon. volumes
#     var1      var2      var3      var4      var5      var6      var7      var8      var9     var10
DEF       
#     Obj1      Obj2      Obj3      Obj4      Obj5      Obj6      Obj7      Obj8      Obj9     Obj10
         1         2
#---1----|----2----|----3----|----4----|----5----|----6----|----7----|----8----|----9----|---10----|
/END
#---1----|----2----|----3----|----4----|----5----|----6----|----7----|----8----|----9----|---10----|
