#RADIOSS STARTER
#--------------------------------------------------------------------------------------------------|
#- RADIOSS DECK WRITTEN BY HyperCrash
#HyperCrash 2019.1 (64 bits) 
#Fri Dec  6 11:34:28 2019
#-
#--------------------------------------------------------------------------------------------------|
#- RADIOSS DECK / GENERATED BY HELIOSS 3.3.b
#--------------------------------------------------------------------------------------------------|
#
#
#
#-
#- DATE	Fri Dec  6 11:34:28 2019
#--------------------------------------------------------------------------------------------------|
#---1----|----2----|----3----|----4----|----5----|----6----|----7----|----8----|----9----|---10----|
/BEGIN
BOULE1V5                                                                        
      2019         0
                   1                   1                   1
                   1                   1                   1
#---1----|----2----|----3----|----4----|----5----|----6----|----7----|----8----|----9----|---10----|
#-  1. CONTROL CARDS:
#---1----|----2----|----3----|----4----|----5----|----6----|----7----|----8----|----9----|---10----|
/TITLE

#---1----|----2----|----3----|----4----|----5----|----6----|----7----|----8----|----9----|---10----|
#include qadiags.inc
#---1----|----2----|----3----|----4----|----5----|----6----|----7----|----8----|----9----|---10----|
/ANALY
#    N2D3D             IPARITH      ISUB
         0                   0         0
#---1----|----2----|----3----|----4----|----5----|----6----|----7----|----8----|----9----|---10----|
/DEF_SHELL
#   ISHELL    ISMSTR    ITHICK     IPLAS   ISTRAIN                        I_SH3N     IDRIL
         0         0         0         0         0                             0         0
#---1----|----2----|----3----|----4----|----5----|----6----|----7----|----8----|----9----|---10----|
/DEF_SOLID
#  I_SOLID    ISMSTR             ISTRAIN                                  IFRAME
         0         0                   0                                       0
#---1----|----2----|----3----|----4----|----5----|----6----|----7----|----8----|----9----|---10----|
/IOFLAG
#     IPRI               IGTYP     IOUTP    IOUTYY   IROOTYY     IDROT
         5                   0         0         0         0         0
#---1----|----2----|----3----|----4----|----5----|----6----|----7----|----8----|----9----|---10----|
/RANDOM
#       Random-Noise                Seed
                   0                   0
#---1----|----2----|----3----|----4----|----5----|----6----|----7----|----8----|----9----|---10----|
/SHFRA/V4
#---1----|----2----|----3----|----4----|----5----|----6----|----7----|----8----|----9----|---10----|
/SPMD
#   DOMDEC     Nproc              Dkword             Nthread
         0         4                   0                   1
#---1----|----2----|----3----|----4----|----5----|----6----|----7----|----8----|----9----|---10----|
#-  2. MATERIALS:
#---1----|----2----|----3----|----4----|----5----|----6----|----7----|----8----|----9----|---10----|
/MAT/PLAS_JOHNS/1
acier XES standard
#              RHO_I
               .0078               .0078
#                  E                  Nu     Iflag
              200000                 .29         0
#                  a                   b                   n           EPS_p_max            SIG_max0
                 180                 450                  .5                1E30                 380
#                  c           EPS_DOT_0       ICC   Fsmooth               F_cut               Chard
                   0                   0         0         0                   0                   0
#                  m              T_melt              rhoC_p                 T_r
                   0                   0                   0                   0
#---1----|----2----|----3----|----4----|----5----|----6----|----7----|----8----|----9----|---10----|
#-  3. NODES:
#---1----|----2----|----3----|----4----|----5----|----6----|----7----|----8----|----9----|---10----|
/NODE
      1000    -10.015957411335    -1.0753791459204        1.2391039848
      1001    -9.9618378126856    -1.0305449929418        1.2391039848
      1002    -9.9077183244864    -1.0753790788868        1.2391039848
      1003    -9.8853012873122    -1.1836180436887        1.2391039848
      1004    -9.9077183697413    -1.2918572291079        1.2391039848
      1005    -9.9618379440661    -1.3366913571964        1.2391039848
      1006     -10.01595743071    -1.2918572913331        1.2391039848
      1007     -10.03837446944    -1.1836183064494        1.2391039848
      1008    -10.079425558147    -.94844285229668         .9444560048
      1009    -9.9618379104077    -.85103016211667         .9444560048
      1010    -9.8442502636587    -.94844295723159         .9444560048
      1011     -9.795543845171    -1.1836182925904         .9444560048
      1012    -9.8442501889883    -1.4187935906139         .9444560048
      1013    -9.9618378493138    -1.5162063008757         .9444560048
      1014     -10.07942552661    -1.4187934831334         .9444560048
      1015    -10.128131914551     -1.183618170402         .9444560048
      1016    -10.103259229593    -.90077550940476     .49999998143592
      1017    -9.9618379395404    -.78361792047473     .49999998143592
      1018    -9.8204165200878    -.90077547008994     .49999998143592
      1019    -9.7618377237843    -1.1836183519874     .49999998143592
# ... 89 like lines cut
#---1----|----2----|----3----|----4----|----5----|----6----|----7----|----8----|----9----|---10----|
#-  4. BOUNDARY CONDITIONS:
#---1----|----2----|----3----|----4----|----5----|----6----|----7----|----8----|----9----|---10----|
/BCS/1
BOULED00_bcs1_111_111
#  Tra rot   skew_ID  grnod_ID
   111 111         0         2
/GRNOD/NODE/2
BOULED00_bcs1_111_111
      1060      1061      1062      1063      1064      1065      1066      1067      1068      1069
      1070      1071      1072      1073      1074      1075      1076      1077      1078      1079
      1080      1081      1082      1083      1084      1085      1086      1087      1088      1089
      1090      1091      1092      1093      1094      1095      1096      1097      1098      1099
      1100      1101      1102      1103      1104      1105      1106      1107      1108      1109
      1110      1111      1112      1113      1114      1115      1116      1117      1118      1119
#---1----|----2----|----3----|----4----|----5----|----6----|----7----|----8----|----9----|---10----|
#-  5. PARTS:
#---1----|----2----|----3----|----4----|----5----|----6----|----7----|----8----|----9----|---10----|
/PART/1
BOULE
       102         1         0
#---1----|----2----|----3----|----4----|----5----|----6----|----7----|----8----|----9----|---10----|
# SHELL elements of /PART/1/BOULE:
#---1----|----2----|----3----|----4----|----5----|----6----|----7----|----8----|----9----|---10----|
/SHELL/1
     10000      1001      1000      1008      1009
     10001      1002      1001      1009      1010
     10002      1003      1002      1010      1011
     10003      1004      1003      1011      1012
     10004      1005      1004      1012      1013
     10005      1006      1005      1013      1014
     10006      1007      1006      1014      1015
     10007      1000      1007      1015      1008
     10008      1009      1008      1016      1017
     10009      1010      1009      1017      1018
     10010      1011      1010      1018      1019
     10011      1012      1011      1019      1020
     10012      1013      1012      1020      1021
     10013      1014      1013      1021      1022
     10014      1015      1014      1022      1023
     10015      1008      1015      1023      1016
     10016      1017      1016      1024      1025
     10017      1018      1017      1025      1026
     10018      1019      1018      1026      1027
     10019      1020      1019      1027      1028
# ... 12 like lines cut
#---1----|----2----|----3----|----4----|----5----|----6----|----7----|----8----|----9----|---10----|
/PART/2
COQUE ARRIERE
       203         1         0
#---1----|----2----|----3----|----4----|----5----|----6----|----7----|----8----|----9----|---10----|
# SHELL elements of /PART/2/COQUE ARRIERE:
#---1----|----2----|----3----|----4----|----5----|----6----|----7----|----8----|----9----|---10----|
/SHELL/2
     10050      1061      1060      1070      1071
     10051      1062      1061      1071      1072
     10052      1063      1062      1072      1073
     10054      1065      1064      1074      1075
     10055      1066      1065      1075      1076
     10056      1067      1066      1076      1077
     10057      1068      1067      1077      1078
     10058      1069      1068      1078      1079
     10059      1071      1070      1080      1081
     10060      1072      1071      1081      1082
     10061      1073      1072      1082      1083
     10063      1075      1074      1084      1085
     10064      1076      1075      1085      1086
     10065      1077      1076      1086      1087
     10066      1078      1077      1087      1088
     10067      1079      1078      1088      1089
     10068      1081      1080      1090      1091
     10069      1082      1081      1091      1092
     10070      1083      1082      1092      1093
     10072      1085      1084      1094      1095
# ... 20 like lines cut
#---1----|----2----|----3----|----4----|----5----|----6----|----7----|----8----|----9----|---10----|
#-  6. GEOMETRICAL SETS:
#---1----|----2----|----3----|----4----|----5----|----6----|----7----|----8----|----9----|---10----|
/PROP/SHELL/102
BOULE
#   Ishell    Ismstr     Ish3n    Idrill                            P_thick_fail
         0         1         0         0                                       0
#                 hm                  hf                  hr                  dm                  dn
                 .01                 .01                 .01                   0                   0
#        N   Istrain               Thick              Ashear              Ithick     Iplas
         0         0                   1                   0                   0         0
#---1----|----2----|----3----|----4----|----5----|----6----|----7----|----8----|----9----|---10----|
/PROP/SHELL/203
COQUE ARRIERE
#   Ishell    Ismstr     Ish3n    Idrill                            P_thick_fail
         0         1         0         0                                       0
#                 hm                  hf                  hr                  dm                  dn
                 .01                 .01                 .01                   0                   0
#        N   Istrain               Thick              Ashear              Ithick     Iplas
         0         0                   1                   0                   0         0
#---1----|----2----|----3----|----4----|----5----|----6----|----7----|----8----|----9----|---10----|
#-  7. FUNCTIONS:
#---1----|----2----|----3----|----4----|----5----|----6----|----7----|----8----|----9----|---10----|
/FUNCT/1
function_1
#                  X                   Y
                   0                  10
       1.00000002E20                  10
#---1----|----2----|----3----|----4----|----5----|----6----|----7----|----8----|----9----|---10----|
/FUNCT/2
New FUNCT 2
#                  X                   Y
                  -4                   1
                -3.8                   2
#---1----|----2----|----3----|----4----|----5----|----6----|----7----|----8----|----9----|---10----|
/MOVE_FUNCT/2
New MOVE FUNCT 2
#            Ascalex 	         Fscaley 	         Ashiftx 	         Fshifty 
                   2                   3                   8                  -3
#---1----|----2----|----3----|----4----|----5----|----6----|----7----|----8----|----9----|---10----|
#-  8. INITIAL VELOCITIES:
#---1----|----2----|----3----|----4----|----5----|----6----|----7----|----8----|----9----|---10----|
/INIVEL/TRA/1
New INIVEL 1
#                 Vx                  Vy                  Vz   Gnod_id   Skew_id
                  10                   0                   0        14         0
/GRNOD/PART/14
New GRNOD 12 _parts_subsubgroup_
         1
#---1----|----2----|----3----|----4----|----5----|----6----|----7----|----8----|----9----|---10----|
#-  9. INTERFACES:
#---1----|----2----|----3----|----4----|----5----|----6----|----7----|----8----|----9----|---10----|
/INTER/TYPE7/1
BOULE1D00_interface_1
#  Slav_id   Mast_id      Istf      Ithe      Igap                Ibag      Idel     Icurv      Iadm
         3        10         5         0         0                   0         0         0         0
#          Fscalegap             Gap_max             Fpenmax
                   0                   0                   0
#              Stmin               Stmax          %mesh_size               dtmin  Irem_gap   Irem_i2
                   0                   0                   0                   0         0         0
#              Stfac                Fric              Gapmin              Tstart               Tstop
                   0                   0                  .2                   0                   0
#      IBC                        Inacti                VisS                VisF              Bumult
       000                             0                   0                   0                   0
#    Ifric    Ifiltr               Xfreq     Iform   sens_ID   fct_IDf             AscaleF   fric_ID
         0         0                   0         0         0         0                   0         0
/GRNOD/NODE/3
BOULE1D00_interface_1_surf_1
      1000      1001      1002      1003      1004      1005      1006      1007      1008      1009
      1010      1011      1012      1013      1014      1015      1016      1017      1018      1019
      1020      1021      1022      1023      1024      1025      1026      1027      1028      1029
      1030      1031      1032      1033      1034      1035      1036      1037      1038      1039
/SURF/GRSHEL/10
BOULE1D00_interface_1_surf_2 _4 nodes shells_subgroup_
         1
/GRSHEL/SHEL/1
BOULE1D00_interface_1_surf_2 _4 nodes shells_subsubgroup_
     10054     10055     10056     10057     10058     10063     10064     10065     10066     10067
     10072     10073     10074     10075     10076     10081     10082     10083     10084     10085
     10090     10091     10092     10093     10094
#---1----|----2----|----3----|----4----|----5----|----6----|----7----|----8----|----9----|---10----|
/INTER/TYPE7/2
BOULE1D00_interface_2
#  Slav_id   Mast_id      Istf      Ithe      Igap                Ibag      Idel     Icurv      Iadm
         5         6         0         0         0                   0         0         0         0
#          Fscalegap             Gap_max             Fpenmax
                   0                   0                   0
#              Stmin               Stmax          %mesh_size               dtmin  Irem_gap   Irem_i2
                   0                   0                   0                   0         0         0
#              Stfac                Fric              Gapmin              Tstart               Tstop
                   0                   0                   0                   0                   0
#      IBC                        Inacti                VisS                VisF              Bumult
       000                             0                   0                   0                   0
#    Ifric    Ifiltr               Xfreq     Iform   sens_ID   fct_IDf             AscaleF   fric_ID
         0         0                   0         0         0         0                   0         0
/GRNOD/NODE/5
BOULE1D00_interface_2_surf_1
      1000      1001      1002      1003      1004      1005      1006      1007      1008      1009
      1010      1011      1012      1013      1014      1015      1016      1017      1018      1019
      1020      1021      1022      1023      1024      1025      1026      1027      1028      1029
      1030      1031      1032      1033      1034      1035      1036      1037      1038      1039
/SURF/PART/6
BOULE1D00_interface_2_surf_2
         1
#---1----|----2----|----3----|----4----|----5----|----6----|----7----|----8----|----9----|---10----|
#- 10. RIGID WALLS:
#---1----|----2----|----3----|----4----|----5----|----6----|----7----|----8----|----9----|---10----|
/RWALL/PLANE/1148
BOULED00_rigid_wall_1
#  node_ID     Slide grnod_ID1 grnod_ID2
      1148         0         7         0
#           D_search                fric            Diameter                ffac       ifq
                   0                   0                   0                   0         0
#               Mass                VX_0                VY_0                VZ_0
               1E-10                   0                   0                   0
#               X_M1                Y_M1                Z_M1
                   1                   1                   0
/GRNOD/NODE/7
BOULED00_rigid_wall_1_ADD
      1000      1001      1002      1003      1004      1005      1006      1007      1008      1009
      1010      1011      1012      1013      1014      1015      1016      1017      1018      1019
      1020      1021      1022      1023      1024      1025      1026      1027      1028      1029
      1030      1031      1032      1033      1034      1035      1036      1037      1038      1039
#---1----|----2----|----3----|----4----|----5----|----6----|----7----|----8----|----9----|---10----|
#- 11. IMPOSED VELOCITIES:
#---1----|----2----|----3----|----4----|----5----|----6----|----7----|----8----|----9----|---10----|
/IMPVEL/1
New IMPVEL 1
#funct_IDT       Dir   skew_ID sensor_ID  grnod_ID  frame_ID     Icoor
         2         Y         0         0        17         0         0
#           Ascale_x            Fscale_Y              Tstart               Tstop
                   1                  -1                   0                   0
/GRNOD/PART/17
New GRNOD 15 _parts_subsubgroup_
         2
#---1----|----2----|----3----|----4----|----5----|----6----|----7----|----8----|----9----|---10----|
#- 12. NODE GROUPS:
#---1----|----2----|----3----|----4----|----5----|----6----|----7----|----8----|----9----|---10----|
/GRNOD/NODE/8
BOULE1V3D00_fixvel_2
      1147      1148
#---1----|----2----|----3----|----4----|----5----|----6----|----7----|----8----|----9----|---10----|
/GRNOD/NODE/9
BOULED00_rigid_wall_1_master
      1148
#---1----|----2----|----3----|----4----|----5----|----6----|----7----|----8----|----9----|---10----|
/GRNOD/GRNOD/10
GRNOD 10
         8         9
#---1----|----2----|----3----|----4----|----5----|----6----|----7----|----8----|----9----|---10----|
/GRNOD/NODE/11
BOULE1V3D00_fixvel_2
      1147      1148
#---1----|----2----|----3----|----4----|----5----|----6----|----7----|----8----|----9----|---10----|
/GRNOD/NODE/18
New GRNOD 18
      1000      1001      1002      1003      1004      1005      1006      1007      1008      1009
      1010      1011      1012      1013      1014      1015      1016      1017      1018      1019
      1020      1021      1022      1023      1024      1025      1026      1027      1028      1029
      1030      1031      1032      1033      1034      1035      1036      1037      1038      1039
#---1----|----2----|----3----|----4----|----5----|----6----|----7----|----8----|----9----|---10----|
/TRANSFORM/SYM/1
sym_back
#---1----|----2----|----3----|----4----|----5----|----6----|----7----|----8----|----9----|---10----|
        18                                                                  1089      1086

#---1----|----2----|----3----|----4----|----5----|----6----|----7----|----8----|----9----|---10----|
/TRANSFORM/SCA/2
scale_back
#---1----|----2----|----3----|----4----|----5----|----6----|----7----|----8----|----9----|---10----|
        18                   5                 2.5                1.25      1114
#---1----|----2----|----3----|----4----|----5----|----6----|----7----|----8----|----9----|---10----|
/TRANSFORM/ROT/3
rot_back
#---1----|----2----|----3----|----4----|----5----|----6----|----7----|----8----|----9----|---10----|
        18                                                                  1095      1115
                                                                                       -90
#---1----|----2----|----3----|----4----|----5----|----6----|----7----|----8----|----9----|---10----|
/TRANSFORM/TRA/4
tra_back
        18                  -5
#---1----|----2----|----3----|----4----|----5----|----6----|----7----|----8----|----9----|---10----|
#- 13. TIME HISTORIES:
#---1----|----2----|----3----|----4----|----5----|----6----|----7----|----8----|----9----|---10----|
/TH/PART/1
Part selection
#     var1      var2      var3      var4      var5      var6      var7      var8      var9     var10
DEF       
#     Obj1      Obj2      Obj3      Obj4      Obj5      Obj6      Obj7      Obj8      Obj9     Obj10
         1         2
#---1----|----2----|----3----|----4----|----5----|----6----|----7----|----8----|----9----|---10----|
/TH/NODE/2
BOULE1V3D00_th_nodes
#     var1      var2      var3      var4      var5      var6      var7      var8      var9     var10
DEF       
#    NODid     Iskew                                           NODname
      1141         0                                                                                
      1147         0                                                                                
      1148         0                                                                                
#---1----|----2----|----3----|----4----|----5----|----6----|----7----|----8----|----9----|---10----|
/TH/RWALL/3
Rigid walls
#     var1      var2      var3      var4      var5      var6      var7      var8      var9     var10
DEF       
#     Obj1      Obj2      Obj3      Obj4      Obj5      Obj6      Obj7      Obj8      Obj9     Obj10
      1148
#---1----|----2----|----3----|----4----|----5----|----6----|----7----|----8----|----9----|---10----|
/END
#---1----|----2----|----3----|----4----|----5----|----6----|----7----|----8----|----9----|---10----|
