#RADIOSS STARTER
# Copyright (C) 2022 Altair Engineering Inc. ("Holder")
# Model is licensed by Holder under CC BY-NC 4.0
# (https://creativecommons.org/licenses/by-nc/4.0/legalcode).
#---1----|----2----|----3----|----4----|----5----|----6----|----7----|----8----|----9----|---10----|
/BEGIN
DMAFNLIN                                                                        
      2019         0
                  kg                   m                   s
                  kg                   m                   s
#---1----|----2----|----3----|----4----|----5----|----6----|----7----|----8----|----9----|---10----|
#-  1. CONTROL CARDS:
#---1----|----2----|----3----|----4----|----5----|----6----|----7----|----8----|----9----|---10----|
/TITLE
Sample model
#---1----|----2----|----3----|----4----|----5----|----6----|----7----|----8----|----9----|---10----|
#include qadiags.inc
#---1----|----2----|----3----|----4----|----5----|----6----|----7----|----8----|----9----|---10----|
/ANALY
#    N2D3D             IPARITH      ISUB
         0                   0         0
#---1----|----2----|----3----|----4----|----5----|----6----|----7----|----8----|----9----|---10----|
/DEF_SHELL
#   ISHELL    ISMSTR    ITHICK     IPLAS   ISTRAIN                        I_SH3N     IDRIL
         0         0         0         0         0                             0         0
#---1----|----2----|----3----|----4----|----5----|----6----|----7----|----8----|----9----|---10----|
/DEF_SOLID
#  I_SOLID    ISMSTR             ISTRAIN                                  IFRAME
         0         0                   0                                       0
#---1----|----2----|----3----|----4----|----5----|----6----|----7----|----8----|----9----|---10----|
/IOFLAG
#     IPRI               IGTYP     IOUTP    IOUTYY   IROOTYY     IDROT
         0                  -1         0         0         0         0
#---1----|----2----|----3----|----4----|----5----|----6----|----7----|----8----|----9----|---10----|
/RANDOM
#       Random-Noise                Seed
                   0                   0
#---1----|----2----|----3----|----4----|----5----|----6----|----7----|----8----|----9----|---10----|
#-  2. MATERIALS:
#---1----|----2----|----3----|----4----|----5----|----6----|----7----|----8----|----9----|---10----|
/MAT/HONEYCOMB/101
PURE COMPRESSION
#              RHO_I
               2E-10                   0
#               E_11                E_22                E_33
                 200                 200                 200
#               G_12                G_23                G_31
                 100                 100                 100
# fun_ID11  fun_ID22  fun_ID33    Iflag1            Fscale11            Fscale22            Fscale33
        21        21        21         0                   1                   1                   1
#          Eps_max11           Eps_max22           Eps_max33
                   0                   0                   0
# fun_ID12  fun_ID23  fun_ID31    Iflag2            Fscale12            Fscale23            Fscale31
        22        22        22         0                   1                   1                   1
#          Eps_max12           Eps_max23           Eps_max31
                   0                   0                   0
#---1----|----2----|----3----|----4----|----5----|----6----|----7----|----8----|----9----|---10----|
/MAT/HONEYCOMB/201
PURE SHEAR
#              RHO_I
               2E-10                   0
#               E_11                E_22                E_33
                 200                 200                 200
#               G_12                G_23                G_31
                 100                 100                 100
# fun_ID11  fun_ID22  fun_ID33    Iflag1            Fscale11            Fscale22            Fscale33
        21        21        21         0                   1                   1                   1
#          Eps_max11           Eps_max22           Eps_max33
                   0                   0                   0
# fun_ID12  fun_ID23  fun_ID31    Iflag2            Fscale12            Fscale23            Fscale31
        22        22        22         0                   1                   1                   1
#          Eps_max12           Eps_max23           Eps_max31
                   0                   0                   0
#---1----|----2----|----3----|----4----|----5----|----6----|----7----|----8----|----9----|---10----|
/MAT/HONEYCOMB/301
HYDROSTATIC
#              RHO_I
               2E-10                   0
#               E_11                E_22                E_33
                 200                 200                 200
#               G_12                G_23                G_31
                 100                 100                 100
# fun_ID11  fun_ID22  fun_ID33    Iflag1            Fscale11            Fscale22            Fscale33
        21        21        21         0                   1                   1                   1
#          Eps_max11           Eps_max22           Eps_max33
                   0                   0                   0
# fun_ID12  fun_ID23  fun_ID31    Iflag2            Fscale12            Fscale23            Fscale31
        22        22        22         0                   1                   1                   1
#          Eps_max12           Eps_max23           Eps_max31
                   0                   0                   0
#---1----|----2----|----3----|----4----|----5----|----6----|----7----|----8----|----9----|---10----|
/MAT/FOAM_PLAS/401
PURE COMPRESSION
#              RHO_I
               2E-10               2E-10
#                  E        Ka  func_IDf          Fscalecurv
                 200         1         0                   1
#                 P0                 Phi             Gamma_0
                   0                   0                   0
#                  A                   B                   C
                1E30                   0                   0
#                 E1                  E2                  Et            eta_comp           eta_shear
                   0                   0                   2                  .2                  .1
#---1----|----2----|----3----|----4----|----5----|----6----|----7----|----8----|----9----|---10----|
/MAT/FOAM_PLAS/501
PURE SHEAR
#              RHO_I
               2E-10               2E-10
#                  E        Ka  func_IDf          Fscalecurv
                 200         1         0                   1
#                 P0                 Phi             Gamma_0
                   0                   0                   0
#                  A                   B                   C
                1E30                   0                   0
#                 E1                  E2                  Et            eta_comp           eta_shear
                   0                   0                   2                  .2                  .1
#---1----|----2----|----3----|----4----|----5----|----6----|----7----|----8----|----9----|---10----|
/MAT/FOAM_PLAS/601
HYDROSTATIC
#              RHO_I
               2E-10               2E-10
#                  E        Ka  func_IDf          Fscalecurv
                 200         1         0                   1
#                 P0                 Phi             Gamma_0
                   0                   0                   0
#                  A                   B                   C
                1E30                   0                   0
#                 E1                  E2                  Et            eta_comp           eta_shear
                   0                   0                   2                  .2                  .1
#---1----|----2----|----3----|----4----|----5----|----6----|----7----|----8----|----9----|---10----|
/MAT/BOLTZMAN/701
PURE COMPRESSION
#              RHO_I
               2E-10               2E-10
#                  K
          66.6666667
#                 G0                  Gl                Beta
                 100                   1                1000
#                 P0                 Phi              Gamma0
                   0                   0                   0
#---1----|----2----|----3----|----4----|----5----|----6----|----7----|----8----|----9----|---10----|
/MAT/BOLTZMAN/801
PURE SHEAR
#              RHO_I
               2E-10               2E-10
#                  K
          66.6666667
#                 G0                  Gl                Beta
                 100                   1                1000
#                 P0                 Phi              Gamma0
                   0                   0                   0
#---1----|----2----|----3----|----4----|----5----|----6----|----7----|----8----|----9----|---10----|
/MAT/BOLTZMAN/901
HYDROSTATIC
#              RHO_I
               2E-10               2E-10
#                  K
          66.6666667
#                 G0                  Gl                Beta
                 100                   1                1000
#                 P0                 Phi              Gamma0
                   0                   0                   0
#---1----|----2----|----3----|----4----|----5----|----6----|----7----|----8----|----9----|---10----|
/MAT/FOAM_VISC/1001
PURE COMPRESSION
#              RHO_I
               2E-10               2E-10
#                  E                  Nu                  E1                  E2                   n
                 200                   0                   0                   0                   0
#                 C1                  C2                  C3               Iflag                Pmin
                   1                   1                   1                   0                   0
# func_IDf                    Fscalepres
         0                             1
#                 Et                Nu_t               eta_0               Lamda
                   2                   0                  .1                   0
#                 P0                 Phi             gamma_0
                   0                   0                   0
#---1----|----2----|----3----|----4----|----5----|----6----|----7----|----8----|----9----|---10----|
/MAT/FOAM_VISC/1101
PURE SHEAR
#              RHO_I
               2E-10               2E-10
#                  E                  Nu                  E1                  E2                   n
                 200                   0                   0                   0                   0
#                 C1                  C2                  C3               Iflag                Pmin
                   1                   1                   1                   0                   0
# func_IDf                    Fscalepres
         0                             1
#                 Et                Nu_t               eta_0               Lamda
                   2                   0                  .1                   0
#                 P0                 Phi             gamma_0
                   0                   0                   0
#---1----|----2----|----3----|----4----|----5----|----6----|----7----|----8----|----9----|---10----|
/MAT/FOAM_VISC/1201
HYDROSTATIC
#              RHO_I
               2E-10               2E-10
#                  E                  Nu                  E1                  E2                   n
                 200                   0                   0                   0                   0
#                 C1                  C2                  C3               Iflag                Pmin
                   1                   1                   1                   0                   0
# func_IDf                    Fscalepres
         0                             1
#                 Et                Nu_t               eta_0               Lamda
                   2                   0                  .1                   0
#                 P0                 Phi             gamma_0
                   0                   0                   0
#---1----|----2----|----3----|----4----|----5----|----6----|----7----|----8----|----9----|---10----|
/MAT/VISC_TAB/1301
NCOMPRESSION
#              RHO_I
               2E-10
#                E_0                nu_t                nu_c                 R_V     Iflag     Itota
                 200                   0                   0                   0         0         0
#               Beta                   H                 R_D       K_R       K_D                Teta
                   0                   0                   0         0         0                   0
#    K_air   fct_IDP            Fscale_P
         0         0                   1
#                 P0                  Rp                Pmax                 Phi
                   0                   0                   0                   0
#fctID_unl                 Fscale_unload        Eps_._unload                   a                   b
         0                             0                   0                   0                   0
#  N_funct                       CUT_off   I_insta
         1                             0         0
#            E_final           Eps_final              Lambda                Visc                 Tol
                   0                   0                   0                   0                   0
#      Fscale_i
                   1
#      Eps_._i
                   0
#    func_ID_iload
         4
#    func_ID_iunload
         0
#---1----|----2----|----3----|----4----|----5----|----6----|----7----|----8----|----9----|---10----|
/MAT/VISC_TAB/1401
PURE SHEAR
#              RHO_I
               2E-10
#                E_0                nu_t                nu_c                 R_V     Iflag     Itota
                 200                   0                   0                   0         0         0
#               Beta                   H                 R_D       K_R       K_D                Teta
                   0                   0                   0         0         0                   0
#    K_air   fct_IDP            Fscale_P
         0         0                   1
#                 P0                  Rp                Pmax                 Phi
                   0                   0                   0                   0
#fctID_unl                 Fscale_unload        Eps_._unload                   a                   b
         0                             0                   0                   0                   0
#  N_funct                       CUT_off   I_insta
         1                             0         0
#            E_final           Eps_final              Lambda                Visc                 Tol
                   0                   0                   0                   0                   0
#      Fscale_i
                   1
#      Eps_._i
                   0
#    func_ID_iload
         4
#    func_ID_iunload
         0
#---1----|----2----|----3----|----4----|----5----|----6----|----7----|----8----|----9----|---10----|
/MAT/VISC_TAB/1501
HYDROSTATIC
#              RHO_I
               2E-10
#                E_0                nu_t                nu_c                 R_V     Iflag     Itota
                 200                   0                   0                   0         0         0
#               Beta                   H                 R_D       K_R       K_D                Teta
                   0                   0                   0         0         0                   0
#    K_air   fct_IDP            Fscale_P
         0         0                   1
#                 P0                  Rp                Pmax                 Phi
                   0                   0                   0                   0
#fctID_unl                 Fscale_unload        Eps_._unload                   a                   b
         0                             0                   0                   0                   0
#  N_funct                       CUT_off   I_insta
         1                             0         0
#            E_final           Eps_final              Lambda                Visc                 Tol
                   0                   0                   0                   0                   0
#      Fscale_i
                   1
#      Eps_._i
                   0
#    func_ID_iload
         4
#    func_ID_iunload
         0
#---1----|----2----|----3----|----4----|----5----|----6----|----7----|----8----|----9----|---10----|
#-  3. NODES:
#---1----|----2----|----3----|----4----|----5----|----6----|----7----|----8----|----9----|---10----|
/NODE
      1001                   0                   0                   0
      1002                  10                   0                   0
      1003                  10                  10                   0
      1004                   0                  10                   0
      1005                   0                   0                  10
      1006                  10                   0                  10
      1007                  10                  10                  10
      1008                   0                  10                  10
      2001                   0                   0                   0
      2002                  10                   0                   0
      2003                  10                  10                   0
      2004                   0                  10                   0
      2005                   0                   0                  10
      2006                  10                   0                  10
      2007                  10                  10                  10
      2008                   0                  10                  10
      3001                   0                   0                   0
      3002                  10                   0                   0
      3003                  10                  10                   0
      3004                   0                  10                   0
# ... 100 like lines cut
#---1----|----2----|----3----|----4----|----5----|----6----|----7----|----8----|----9----|---10----|
#-  4. BOUNDARY CONDITIONS:
#---1----|----2----|----3----|----4----|----5----|----6----|----7----|----8----|----9----|---10----|
/BCS/1
bcs1_001_000
#  Tra rot   skew_ID  grnod_ID
   001 000         0         1
/GRNOD/NODE/1
bcs1_001_000
      1001      1002      1003      1004      4001      4002      4003      4004      7001      7002
      7003      7004     10001     10002     10003     10004     13001     13002     13003     13004
#---1----|----2----|----3----|----4----|----5----|----6----|----7----|----8----|----9----|---10----|
/BCS/2
bcs2_111_000
#  Tra rot   skew_ID  grnod_ID
   111 000         0         2
/GRNOD/NODE/2
bcs2_111_000
      2001      2002      2003      2004      5001      5002      5003      5004      8001      8002
      8003      8004     11001     11002     11003     11004     14001     14002     14003     14004
#---1----|----2----|----3----|----4----|----5----|----6----|----7----|----8----|----9----|---10----|
/BCS/3
bcs3_011_000
#  Tra rot   skew_ID  grnod_ID
   011 000         0         3
/GRNOD/NODE/3
bcs3_011_000
      2005      2006      2007      2008      5005      5006      5007      5008      8005      8006
      8007      8008     11005     11006     11007     11008     14005     14006     14007     14008
#---1----|----2----|----3----|----4----|----5----|----6----|----7----|----8----|----9----|---10----|
#-  5. SKEWS & FRAMES:
#---1----|----2----|----3----|----4----|----5----|----6----|----7----|----8----|----9----|---10----|
/SKEW/FIX/1
skew1
#                 OX                  OY                  OZ
                   0                   0                   0
#                 X1                  Y1                  Z1
                   0                   0                   1
#                 X2                  Y2                  Z2
                   1                   0                   0
#---1----|----2----|----3----|----4----|----5----|----6----|----7----|----8----|----9----|---10----|
#-  6. PARTS:
#---1----|----2----|----3----|----4----|----5----|----6----|----7----|----8----|----9----|---10----|
/PART/1
LAW 28 PURE COMPRESSION
       101       101         0
#---1----|----2----|----3----|----4----|----5----|----6----|----7----|----8----|----9----|---10----|
# BRICK elements of /PART/1/LAW 28 PURE COMPRESSION:
#---1----|----2----|----3----|----4----|----5----|----6----|----7----|----8----|----9----|---10----|
/BRICK/1
      1001      1001      1002      1003      1004      1005      1006      1007      1008
#---1----|----2----|----3----|----4----|----5----|----6----|----7----|----8----|----9----|---10----|
/PART/2
LAW 28 PURE SHEAR
       201       201         0
#---1----|----2----|----3----|----4----|----5----|----6----|----7----|----8----|----9----|---10----|
# BRICK elements of /PART/2/LAW 28 PURE SHEAR:
#---1----|----2----|----3----|----4----|----5----|----6----|----7----|----8----|----9----|---10----|
/BRICK/2
      2001      2001      2002      2003      2004      2005      2006      2007      2008
#---1----|----2----|----3----|----4----|----5----|----6----|----7----|----8----|----9----|---10----|
/PART/3
LAW 28 HYDROSTATIC LOADING
       301       301         0
#---1----|----2----|----3----|----4----|----5----|----6----|----7----|----8----|----9----|---10----|
# BRICK elements of /PART/3/LAW 28 HYDROSTATIC LOADING:
#---1----|----2----|----3----|----4----|----5----|----6----|----7----|----8----|----9----|---10----|
/BRICK/3
      3001      3001      3002      3003      3004      3005      3006      3007      3008
#---1----|----2----|----3----|----4----|----5----|----6----|----7----|----8----|----9----|---10----|
/PART/4
LAW 33 PURE COMPRESSION
       401       401         0
#---1----|----2----|----3----|----4----|----5----|----6----|----7----|----8----|----9----|---10----|
# BRICK elements of /PART/4/LAW 33 PURE COMPRESSION:
#---1----|----2----|----3----|----4----|----5----|----6----|----7----|----8----|----9----|---10----|
/BRICK/4
      4001      4001      4002      4003      4004      4005      4006      4007      4008
#---1----|----2----|----3----|----4----|----5----|----6----|----7----|----8----|----9----|---10----|
/PART/5
LAW 33 PURE SHEAR
       501       501         0
#---1----|----2----|----3----|----4----|----5----|----6----|----7----|----8----|----9----|---10----|
# BRICK elements of /PART/5/LAW 33 PURE SHEAR:
#---1----|----2----|----3----|----4----|----5----|----6----|----7----|----8----|----9----|---10----|
/BRICK/5
      5001      5001      5002      5003      5004      5005      5006      5007      5008
#---1----|----2----|----3----|----4----|----5----|----6----|----7----|----8----|----9----|---10----|
/PART/6
LAW 33 HYDROSTATIC LOADING
       601       601         0
#---1----|----2----|----3----|----4----|----5----|----6----|----7----|----8----|----9----|---10----|
# BRICK elements of /PART/6/LAW 33 HYDROSTATIC LOADING:
#---1----|----2----|----3----|----4----|----5----|----6----|----7----|----8----|----9----|---10----|
/BRICK/6
      6001      6001      6002      6003      6004      6005      6006      6007      6008
#---1----|----2----|----3----|----4----|----5----|----6----|----7----|----8----|----9----|---10----|
/PART/7
LAW 34 PURE COMPRESSION
       701       701         0
#---1----|----2----|----3----|----4----|----5----|----6----|----7----|----8----|----9----|---10----|
# BRICK elements of /PART/7/LAW 34 PURE COMPRESSION:
#---1----|----2----|----3----|----4----|----5----|----6----|----7----|----8----|----9----|---10----|
/BRICK/7
      7001      7001      7002      7003      7004      7005      7006      7007      7008
#---1----|----2----|----3----|----4----|----5----|----6----|----7----|----8----|----9----|---10----|
/PART/8
LAW 34 PURE SHEAR
       801       801         0
#---1----|----2----|----3----|----4----|----5----|----6----|----7----|----8----|----9----|---10----|
# BRICK elements of /PART/8/LAW 34 PURE SHEAR:
#---1----|----2----|----3----|----4----|----5----|----6----|----7----|----8----|----9----|---10----|
/BRICK/8
      8001      8001      8002      8003      8004      8005      8006      8007      8008
#---1----|----2----|----3----|----4----|----5----|----6----|----7----|----8----|----9----|---10----|
/PART/9
LAW 34 HYDROSTATIC LOADING
       901       901         0
#---1----|----2----|----3----|----4----|----5----|----6----|----7----|----8----|----9----|---10----|
# BRICK elements of /PART/9/LAW 34 HYDROSTATIC LOADING:
#---1----|----2----|----3----|----4----|----5----|----6----|----7----|----8----|----9----|---10----|
/BRICK/9
      9001      9001      9002      9003      9004      9005      9006      9007      9008
#---1----|----2----|----3----|----4----|----5----|----6----|----7----|----8----|----9----|---10----|
/PART/10
LAW 35 PURE COMPRESSION
      1001      1001         0
#---1----|----2----|----3----|----4----|----5----|----6----|----7----|----8----|----9----|---10----|
# BRICK elements of /PART/10/LAW 35 PURE COMPRESSION:
#---1----|----2----|----3----|----4----|----5----|----6----|----7----|----8----|----9----|---10----|
/BRICK/10
     10001     10001     10002     10003     10004     10005     10006     10007     10008
#---1----|----2----|----3----|----4----|----5----|----6----|----7----|----8----|----9----|---10----|
/PART/11
LAW 35 PURE SHEAR
      1101      1101         0
#---1----|----2----|----3----|----4----|----5----|----6----|----7----|----8----|----9----|---10----|
# BRICK elements of /PART/11/LAW 35 PURE SHEAR:
#---1----|----2----|----3----|----4----|----5----|----6----|----7----|----8----|----9----|---10----|
/BRICK/11
     11001     11001     11002     11003     11004     11005     11006     11007     11008
#---1----|----2----|----3----|----4----|----5----|----6----|----7----|----8----|----9----|---10----|
/PART/12
LAW 35 HYDROSTATIC LOADING
      1201      1201         0
#---1----|----2----|----3----|----4----|----5----|----6----|----7----|----8----|----9----|---10----|
# BRICK elements of /PART/12/LAW 35 HYDROSTATIC LOADING:
#---1----|----2----|----3----|----4----|----5----|----6----|----7----|----8----|----9----|---10----|
/BRICK/12
     12001     12001     12002     12003     12004     12005     12006     12007     12008
#---1----|----2----|----3----|----4----|----5----|----6----|----7----|----8----|----9----|---10----|
/PART/13
LAW 38 PURE COMPRESSION
      1301      1301         0
#---1----|----2----|----3----|----4----|----5----|----6----|----7----|----8----|----9----|---10----|
# BRICK elements of /PART/13/LAW 38 PURE COMPRESSION:
#---1----|----2----|----3----|----4----|----5----|----6----|----7----|----8----|----9----|---10----|
/BRICK/13
     13001     13001     13002     13003     13004     13005     13006     13007     13008
#---1----|----2----|----3----|----4----|----5----|----6----|----7----|----8----|----9----|---10----|
/PART/14
LAW 38 PURE SHEAR
      1401      1401         0
#---1----|----2----|----3----|----4----|----5----|----6----|----7----|----8----|----9----|---10----|
# BRICK elements of /PART/14/LAW 38 PURE SHEAR:
#---1----|----2----|----3----|----4----|----5----|----6----|----7----|----8----|----9----|---10----|
/BRICK/14
     14001     14001     14002     14003     14004     14005     14006     14007     14008
#---1----|----2----|----3----|----4----|----5----|----6----|----7----|----8----|----9----|---10----|
/PART/15
LAW 38 HYDROSTATIC LOADING
      1501      1501         0
#---1----|----2----|----3----|----4----|----5----|----6----|----7----|----8----|----9----|---10----|
# BRICK elements of /PART/15/LAW 38 HYDROSTATIC LOADING:
#---1----|----2----|----3----|----4----|----5----|----6----|----7----|----8----|----9----|---10----|
/BRICK/15
     15001     15001     15002     15003     15004     15005     15006     15007     15008
#---1----|----2----|----3----|----4----|----5----|----6----|----7----|----8----|----9----|---10----|
#-  7. GEOMETRICAL SETS:
#---1----|----2----|----3----|----4----|----5----|----6----|----7----|----8----|----9----|---10----|
/PROP/SOL_ORTH/101
LAW 28 PURE COMPRESSION
#   Isolid    Ismstr               Icpre               Inpts              Iframe                  dn
         0         1                   0                   0                   0                   0
#                q_a                 q_b                   h
               1E-20                 .05                   0
#                 Vx                  Vy                  Vz   skew_ID        Ip     Iorth
                   0                   0                   0         0         1         0
#                phi
                   0
#             dt_min   Istrain      Ihkt
                   0         0         0
#---1----|----2----|----3----|----4----|----5----|----6----|----7----|----8----|----9----|---10----|
/PROP/SOL_ORTH/201
LAW 28 PURE SHEAR
#   Isolid    Ismstr               Icpre               Inpts              Iframe                  dn
         0         1                   0                   0                   0                   0
#                q_a                 q_b                   h
               1E-20                 .05                   0
#                 Vx                  Vy                  Vz   skew_ID        Ip     Iorth
                   0                   0                   0         0         1         0
#                phi
                   0
#             dt_min   Istrain      Ihkt
                   0         0         0
#---1----|----2----|----3----|----4----|----5----|----6----|----7----|----8----|----9----|---10----|
/PROP/SOL_ORTH/301
LAW 28 HYDROSTATIC LOADING
#   Isolid    Ismstr               Icpre               Inpts              Iframe                  dn
         0         1                   0                   0                   0                   0
#                q_a                 q_b                   h
               1E-20                 .05                   0
#                 Vx                  Vy                  Vz   skew_ID        Ip     Iorth
                   0                   0                   0         0         1         0
#                phi
                   0
#             dt_min   Istrain      Ihkt
                   0         0         0
#---1----|----2----|----3----|----4----|----5----|----6----|----7----|----8----|----9----|---10----|
/PROP/SOL_ORTH/401
LAW 33 PURE COMPRESSION
#   Isolid    Ismstr               Icpre               Inpts              Iframe                  dn
         0         1                   0                   0                   0                   0
#                q_a                 q_b                   h
                   0                   0                   0
#                 Vx                  Vy                  Vz   skew_ID        Ip     Iorth
                   0                   0                   0         0         1         0
#                phi
                   0
#             dt_min   Istrain      Ihkt
                   0         0         0
#---1----|----2----|----3----|----4----|----5----|----6----|----7----|----8----|----9----|---10----|
/PROP/SOL_ORTH/501
LAW 33 PURE SHEAR
#   Isolid    Ismstr               Icpre               Inpts              Iframe                  dn
         0         1                   0                   0                   0                   0
#                q_a                 q_b                   h
                   0                   0                   0
#                 Vx                  Vy                  Vz   skew_ID        Ip     Iorth
                   0                   0                   0         0         1         0
#                phi
                   0
#             dt_min   Istrain      Ihkt
                   0         0         0
#---1----|----2----|----3----|----4----|----5----|----6----|----7----|----8----|----9----|---10----|
/PROP/SOL_ORTH/601
LAW 33 HYDROSTATIC LOADING
#   Isolid    Ismstr               Icpre               Inpts              Iframe                  dn
         0         1                   0                   0                   0                   0
#                q_a                 q_b                   h
                   0                   0                   0
#                 Vx                  Vy                  Vz   skew_ID        Ip     Iorth
                   0                   0                   0         0         1         0
#                phi
                   0
#             dt_min   Istrain      Ihkt
                   0         0         0
#---1----|----2----|----3----|----4----|----5----|----6----|----7----|----8----|----9----|---10----|
/PROP/SOL_ORTH/701
LAW 34 PURE COMPRESSION
#   Isolid    Ismstr               Icpre               Inpts              Iframe                  dn
         0         1                   0                   0                   0                   0
#                q_a                 q_b                   h
                   0                   0                   0
#                 Vx                  Vy                  Vz   skew_ID        Ip     Iorth
                   0                   0                   0         0         1         0
#                phi
                   0
#             dt_min   Istrain      Ihkt
                   0         0         0
#---1----|----2----|----3----|----4----|----5----|----6----|----7----|----8----|----9----|---10----|
/PROP/SOL_ORTH/801
LAW 34 PURE SHEAR
#   Isolid    Ismstr               Icpre               Inpts              Iframe                  dn
         0         1                   0                   0                   0                   0
#                q_a                 q_b                   h
                   0                   0                   0
#                 Vx                  Vy                  Vz   skew_ID        Ip     Iorth
                   0                   0                   0         0         1         0
#                phi
                   0
#             dt_min   Istrain      Ihkt
                   0         0         0
#---1----|----2----|----3----|----4----|----5----|----6----|----7----|----8----|----9----|---10----|
/PROP/SOL_ORTH/901
LAW 34 HYDROSTATIC LOADING
#   Isolid    Ismstr               Icpre               Inpts              Iframe                  dn
         0         1                   0                   0                   0                   0
#                q_a                 q_b                   h
                   0                   0                   0
#                 Vx                  Vy                  Vz   skew_ID        Ip     Iorth
                   0                   0                   0         0         1         0
#                phi
                   0
#             dt_min   Istrain      Ihkt
                   0         0         0
#---1----|----2----|----3----|----4----|----5----|----6----|----7----|----8----|----9----|---10----|
/PROP/SOL_ORTH/1001
LAW 35 PURE COMPRESSION
#   Isolid    Ismstr               Icpre               Inpts              Iframe                  dn
         0         1                   0                   0                   0                   0
#                q_a                 q_b                   h
                   0                   0                   0
#                 Vx                  Vy                  Vz   skew_ID        Ip     Iorth
                   0                   0                   0         0         1         0
#                phi
                   0
#             dt_min   Istrain      Ihkt
                   0         0         0
#---1----|----2----|----3----|----4----|----5----|----6----|----7----|----8----|----9----|---10----|
/PROP/SOL_ORTH/1101
LAW 35 PURE SHEAR
#   Isolid    Ismstr               Icpre               Inpts              Iframe                  dn
         0         1                   0                   0                   0                   0
#                q_a                 q_b                   h
                   0                   0                   0
#                 Vx                  Vy                  Vz   skew_ID        Ip     Iorth
                   0                   0                   0         0         1         0
#                phi
                   0
#             dt_min   Istrain      Ihkt
                   0         0         0
#---1----|----2----|----3----|----4----|----5----|----6----|----7----|----8----|----9----|---10----|
/PROP/SOL_ORTH/1201
LAW 35 HYDROSTATIC LOADING
#   Isolid    Ismstr               Icpre               Inpts              Iframe                  dn
         0         1                   0                   0                   0                   0
#                q_a                 q_b                   h
                   0                   0                   0
#                 Vx                  Vy                  Vz   skew_ID        Ip     Iorth
                   0                   0                   0         0         1         0
#                phi
                   0
#             dt_min   Istrain      Ihkt
                   0         0         0
#---1----|----2----|----3----|----4----|----5----|----6----|----7----|----8----|----9----|---10----|
/PROP/SOL_ORTH/1301
LAW 38 PURE COMPRESSION
#   Isolid    Ismstr               Icpre               Inpts              Iframe                  dn
         0         1                   0                   0                   0                   0
#                q_a                 q_b                   h
                   0                   0                   0
#                 Vx                  Vy                  Vz   skew_ID        Ip     Iorth
                   0                   0                   0         0         1         0
#                phi
                   0
#             dt_min   Istrain      Ihkt
                   0         0         0
#---1----|----2----|----3----|----4----|----5----|----6----|----7----|----8----|----9----|---10----|
/PROP/SOL_ORTH/1401
LAW 38 PURE SHEAR
#   Isolid    Ismstr               Icpre               Inpts              Iframe                  dn
         0         1                   0                   0                   0                   0
#                q_a                 q_b                   h
                   0                   0                   0
#                 Vx                  Vy                  Vz   skew_ID        Ip     Iorth
                   0                   0                   0         0         1         0
#                phi
                   0
#             dt_min   Istrain      Ihkt
                   0         0         0
#---1----|----2----|----3----|----4----|----5----|----6----|----7----|----8----|----9----|---10----|
/PROP/SOL_ORTH/1501
LAW 38 HYDROSTATIC LOADING
#   Isolid    Ismstr               Icpre               Inpts              Iframe                  dn
         0         1                   0                   0                   0                   0
#                q_a                 q_b                   h
                   0                   0                   0
#                 Vx                  Vy                  Vz   skew_ID        Ip     Iorth
                   0                   0                   0         0         1         0
#                phi
                   0
#             dt_min   Istrain      Ihkt
                   0         0         0
#---1----|----2----|----3----|----4----|----5----|----6----|----7----|----8----|----9----|---10----|
#-  8. FUNCTIONS:
#---1----|----2----|----3----|----4----|----5----|----6----|----7----|----8----|----9----|---10----|
/FUNCT/2
function_2
#                  X                   Y
                   0                   0
                .048                   0
                  .1                .013
                  .2                .031
                  .3                .056
                  .4                .088
                  .5                .144
                 .56                .206
#---1----|----2----|----3----|----4----|----5----|----6----|----7----|----8----|----9----|---10----|
/FUNCT/3
function_3
#                  X                   Y
                   0                   0
                .032                .069
                .064                  .1
                  .1                .118
                  .2                .153
                  .3                .185
                  .4                .221
                  .5                .271
                  .6                .341
                 .63                .368
                 .95                .668
                   1                   1
#---1----|----2----|----3----|----4----|----5----|----6----|----7----|----8----|----9----|---10----|
/FUNCT/4
function_4
#                  X                   Y
                  -1                -200
                   0                   0
                  .1                  20
                  .9                21.6
                   1                 200
#---1----|----2----|----3----|----4----|----5----|----6----|----7----|----8----|----9----|---10----|
/FUNCT/21
function_21
#                  X                   Y
          -.89999998        4.3436611E29
                   0        4.3436611E29
                   4        4.3436611E29
                  19        2.1699886E35
#---1----|----2----|----3----|----4----|----5----|----6----|----7----|----8----|----9----|---10----|
/FUNCT/22
function_22
#                  X                   Y
          -.89999998        2.1718305E29
                   0        2.1718305E29
                   4        2.1718305E29
                  19        2.1699866E35
#---1----|----2----|----3----|----4----|----5----|----6----|----7----|----8----|----9----|---10----|
/FUNCT/31
function_31
#                  X                   Y
                   0               -1000
                .008               -1000
                .009                1000
                .017                1000
                .018                   0
                  .1                   0
#---1----|----2----|----3----|----4----|----5----|----6----|----7----|----8----|----9----|---10----|
/FUNCT/41
function_41
#                  X                   Y
          -.89999998           .43436611
                   0           .43436611
           .85000002           .43436611
           .94999999           216998.86
#---1----|----2----|----3----|----4----|----5----|----6----|----7----|----8----|----9----|---10----|
/FUNCT/42
function_42
#                  X                   Y
          -.89999998           4.3436611
                   0           4.3436611
           .85000002           4.3436611
           .94999999           2169988.6
#---1----|----2----|----3----|----4----|----5----|----6----|----7----|----8----|----9----|---10----|
#-  9. IMPOSED VELOCITIES:
#---1----|----2----|----3----|----4----|----5----|----6----|----7----|----8----|----9----|---10----|
/IMPVEL/1
fixvel_1
#funct_IDT       Dir   skew_ID sensor_ID  grnod_ID  frame_ID     Icoor
        31         Z         0         0         4         0         0
#           Ascale_x            Fscale_Y              Tstart               Tstop
                   1                   0                   0                   0
/GRNOD/NODE/4
fixvel_1
      1005      1006      1007      1008      4005      4006      4007      4008      7005      7006
      7007      7008     10005     10006     10007     10008     13005     13006     13007     13008
#---1----|----2----|----3----|----4----|----5----|----6----|----7----|----8----|----9----|---10----|
/IMPVEL/2
fixvel_21
#funct_IDT       Dir   skew_ID sensor_ID  grnod_ID  frame_ID     Icoor
        31         X         0         0         5         0         0
#           Ascale_x            Fscale_Y              Tstart               Tstop
                   1                   0                   0                   0
/GRNOD/NODE/5
fixvel_21
      2005      2006      2007      2008      5005      5006      5007      5008      8005      8006
      8007      8008     11005     11006     11007     11008     14005     14006     14007     14008
#---1----|----2----|----3----|----4----|----5----|----6----|----7----|----8----|----9----|---10----|
/IMPVEL/3
fixvel_41
#funct_IDT       Dir   skew_ID sensor_ID  grnod_ID  frame_ID     Icoor
        31         Z         0         0         6         0         0
#           Ascale_x            Fscale_Y              Tstart               Tstop
                   1                 -.5                   0                   0
/GRNOD/NODE/6
fixvel_41
      3001      3002      3003      3004      6001      6002      6003      6004      9001      9002
      9003      9004     12001     12002     12003     12004     15001     15002     15003     15004
#---1----|----2----|----3----|----4----|----5----|----6----|----7----|----8----|----9----|---10----|
/IMPVEL/4
fixvel_45
#funct_IDT       Dir   skew_ID sensor_ID  grnod_ID  frame_ID     Icoor
        31         Z         0         0         7         0         0
#           Ascale_x            Fscale_Y              Tstart               Tstop
                   1                  .5                   0                   0
/GRNOD/NODE/7
fixvel_45
      3005      3006      3007      3008      6005      6006      6007      6008      9005      9006
      9007      9008     12005     12006     12007     12008     15005     15006     15007     15008
#---1----|----2----|----3----|----4----|----5----|----6----|----7----|----8----|----9----|---10----|
/IMPVEL/5
fixvel_49
#funct_IDT       Dir   skew_ID sensor_ID  grnod_ID  frame_ID     Icoor
        31         X         0         0         8         0         0
#           Ascale_x            Fscale_Y              Tstart               Tstop
                   1                 -.5                   0                   0
/GRNOD/NODE/8
fixvel_49
      3001      3004      3005      3008      6001      6004      6005      6008      9001      9004
      9005      9008     12001     12004     12005     12008     15001     15004     15005     15008
#---1----|----2----|----3----|----4----|----5----|----6----|----7----|----8----|----9----|---10----|
/IMPVEL/6
fixvel_50
#funct_IDT       Dir   skew_ID sensor_ID  grnod_ID  frame_ID     Icoor
        31         X         0         0         9         0         0
#           Ascale_x            Fscale_Y              Tstart               Tstop
                   1                  .5                   0                   0
/GRNOD/NODE/9
fixvel_50
      3002      3003      3006      3007      6002      6003      6006      6007      9002      9003
      9006      9007     12002     12003     12006     12007     15002     15003     15006     15007
#---1----|----2----|----3----|----4----|----5----|----6----|----7----|----8----|----9----|---10----|
/IMPVEL/7
fixvel_57
#funct_IDT       Dir   skew_ID sensor_ID  grnod_ID  frame_ID     Icoor
        31         Y         0         0        10         0         0
#           Ascale_x            Fscale_Y              Tstart               Tstop
                   1                 -.5                   0                   0
/GRNOD/NODE/10
fixvel_57
      3001      3002      3005      3006      6001      6002      6005      6006      9001      9002
      9005      9006     12001     12002     12005     12006     15001     15002     15005     15006
#---1----|----2----|----3----|----4----|----5----|----6----|----7----|----8----|----9----|---10----|
/IMPVEL/8
fixvel_59
#funct_IDT       Dir   skew_ID sensor_ID  grnod_ID  frame_ID     Icoor
        31         Y         0         0        11         0         0
#           Ascale_x            Fscale_Y              Tstart               Tstop
                   1                  .5                   0                   0
/GRNOD/NODE/11
fixvel_59
      3003      3004      3007      3008      6003      6004      6007      6008      9003      9004
      9007      9008     12003     12004     12007     12008     15003     15004     15007     15008
#---1----|----2----|----3----|----4----|----5----|----6----|----7----|----8----|----9----|---10----|
#- 10. TIME HISTORIES:
#---1----|----2----|----3----|----4----|----5----|----6----|----7----|----8----|----9----|---10----|
/TH/NODE/1
th_nodes
#     var1      var2      var3      var4      var5      var6      var7      var8      var9     var10
DEF       
#    NODid     Iskew                                           NODname
      1001         0                                                                                
      1002         0                                                                                
      1003         0                                                                                
      1004         0                                                                                
      1005         0                                                                                
      1006         0                                                                                
      1007         0                                                                                
      1008         0                                                                                
      2001         0                                                                                
      2002         0                                                                                
      2003         0                                                                                
      2004         0                                                                                
      2005         0                                                                                
      2006         0                                                                                
      2007         0                                                                                
      2008         0                                                                                
      3001         0                                                                                
      3002         0                                                                                
      3003         0                                                                                
      3004         0                                                                                
# ... 100 like lines cut
#---1----|----2----|----3----|----4----|----5----|----6----|----7----|----8----|----9----|---10----|
/TH/BRIC/2
th_3Dsolid
#     var1      var2      var3      var4      var5      var6      var7      var8      var9     var10
DEF       
#     Elid                                                      Elname
      7001                                                                                          
      5001                                                                                          
     10001                                                                                          
      9001                                                                                          
      6001                                                                                          
      2001                                                                                          
     13001                                                                                          
      1001                                                                                          
     15001                                                                                          
      3001                                                                                          
      4001                                                                                          
     14001                                                                                          
     12001                                                                                          
     11001                                                                                          
      8001                                                                                          
#---1----|----2----|----3----|----4----|----5----|----6----|----7----|----8----|----9----|---10----|
/TH/PART/3
Part selection
#     var1      var2      var3      var4      var5      var6      var7      var8      var9     var10
DEF       
#     Obj1      Obj2      Obj3      Obj4      Obj5      Obj6      Obj7      Obj8      Obj9     Obj10
         1         2         3         4         5         6         7         8         9        10
        11        12        13        14        15
#---1----|----2----|----3----|----4----|----5----|----6----|----7----|----8----|----9----|---10----|
/END
#---1----|----2----|----3----|----4----|----5----|----6----|----7----|----8----|----9----|---10----|
