#RADIOSS STARTER
# Copyright (C) 2022 Altair Engineering Inc. ("Holder")
# Model is licensed by Holder under CC BY-NC 4.0
# (https://creativecommons.org/licenses/by-nc/4.0/legalcode).
#--------------------------------------------------------------------------------------------------|
#- RADIOSS DECK WRITTEN BY HyperCrash
#HyperCrash 2019.1 (64 bits) 
#Wed Mar  4 14:45:29 2020
#-
#------------------------------------------------------------------------------|
#- RADIOSS DECK / GENERATED BY HELIOSS 3.1.c
#-
#- DATE	Thu Oct 21 11:05:18 2004
#------------------------------------------------------------------------------|
#
#-
#- DATE	Wed Mar  4 14:45:29 2020
#--------------------------------------------------------------------------------------------------|
#---1----|----2----|----3----|----4----|----5----|----6----|----7----|----8----|----9----|---10----|
/BEGIN
L25CRASB                                                                        
      2018         0
                   g                  mm                  ms
                   g                  mm                  ms
#---1----|----2----|----3----|----4----|----5----|----6----|----7----|----8----|----9----|---10----|
#-  1. CONTROL CARDS:
#---1----|----2----|----3----|----4----|----5----|----6----|----7----|----8----|----9----|---10----|
/TITLE
Loi 25, format par bloc, crasurv
#---1----|----2----|----3----|----4----|----5----|----6----|----7----|----8----|----9----|---10----|
#include qadiags.inc
#---1----|----2----|----3----|----4----|----5----|----6----|----7----|----8----|----9----|---10----|
/ANALY
#    N2D3D             IPARITH      ISUB
         0                   0         0
#---1----|----2----|----3----|----4----|----5----|----6----|----7----|----8----|----9----|---10----|
/DEF_SHELL
#   ISHELL    ISMSTR    ITHICK     IPLAS   ISTRAIN                        I_SH3N     IDRIL
         0         0         0         0         0                             0         0
#---1----|----2----|----3----|----4----|----5----|----6----|----7----|----8----|----9----|---10----|
/DEF_SOLID
#  I_SOLID    ISMSTR             ISTRAIN                                  IFRAME
         0         0                   0                                       0
#---1----|----2----|----3----|----4----|----5----|----6----|----7----|----8----|----9----|---10----|
/IOFLAG
#     IPRI               IGTYP     IOUTP    IOUTYY   IROOTYY     IDROT
         5                   0         0         0         0         0
#---1----|----2----|----3----|----4----|----5----|----6----|----7----|----8----|----9----|---10----|
/RANDOM
#       Random-Noise                Seed
                   0                   0
#---1----|----2----|----3----|----4----|----5----|----6----|----7----|----8----|----9----|---10----|
#-  2. MATERIALS:
#---1----|----2----|----3----|----4----|----5----|----6----|----7----|----8----|----9----|---10----|
/MAT/COMPSH/30
CARBO T300_14
#              RHO_I
              .00165
#                E11                 E22                NU12     Iform                           E33
              170000                8600                  .3         1                             0
#                G12                 G23                 G31              EPS_f1              EPS_f2
                4410                4410                4410                   0                   0
#             EPS_t1              EPS_m1              EPS_t2              EPS_m2                dmax
               .0107                .012               .0095                .011                   0
#              Wpmax               Wpref      Ioff                         ratio
                  13                   1         0                             0
#                  c          EPS_rate_0               alpha                              ICC_global
                   0                   0                   0                                       0
#            sig_1yt                b_1t                n_1t           sig_1maxt                c_1t
                  20                 200                  .8                1700                   0
#            EPS_1t1             EPS_2t1          SIGMA_rst1            Wpmax_t1
                   0                   0                   0                   0
#            sig_2yt                b_2t                n_2t           sig_2maxt                c_2t
                  30                   9                 .33                  78                   0
#            EPS_1t2             EPS_2t2            sig_rst2            Wpmax_t2
                   0                   0                   0                   0
#            sig_1yc                b_1c                n_1c           sig_1maxc                c_1c
                  40                  26                 .33                1200                   0
#            EPS_1c1             EPS_2c1            sig_rsc1            Wpmax_c1
                   0                   0                   0                   0
#            sig_2yc                b_2c                n_2c           sig_2maxc                c_2c
                  50                3.55                 .21                 277                   0
#            EPS_1c2             EPS_2c2            sig_rsc2            Wpmax_c2
                   0                   0                   0                   0
#           sig_12yt               b_12t               n_12t          sig_12maxt               c_12t
                  60                 .45                 .28                91.2                   0
#           EPS_1t12            EPS_2t12           sig_rst12           Wpmax_t12
                   0                   0                   0                   0
#          GAMMA_ini           GAMMA_max               d3max
                   0                   0                   0
#  Fsmooth                Fcut
         0                   0
#---1----|----2----|----3----|----4----|----5----|----6----|----7----|----8----|----9----|---10----|
#-  3. NODES:
#---1----|----2----|----3----|----4----|----5----|----6----|----7----|----8----|----9----|---10----|
/NODE
        10                   1                   0                   1
        20                 116                   0                   1
        30                 116                   0                  16
        40                   1                   0                  16
#---1----|----2----|----3----|----4----|----5----|----6----|----7----|----8----|----9----|---10----|
#-  4. BOUNDARY CONDITIONS:
#---1----|----2----|----3----|----4----|----5----|----6----|----7----|----8----|----9----|---10----|
/BCS/1
bcs1_111_000
#  Tra rot   skew_ID  grnod_ID
   111 000         0         2
/GRNOD/NODE/2
bcs1_111_000
        10
#---1----|----2----|----3----|----4----|----5----|----6----|----7----|----8----|----9----|---10----|
/BCS/2
bcs2_000_000
#  Tra rot   skew_ID  grnod_ID
   011 000         0         3
/GRNOD/NODE/3
bcs2_000_000
        20
#---1----|----2----|----3----|----4----|----5----|----6----|----7----|----8----|----9----|---10----|
/BCS/3
TRAC45D00_bcs1_010_000
#  Tra rot   skew_ID  grnod_ID
   010 000         0         4
/GRNOD/NODE/4
TRAC45D00_bcs1_010_000
        30
#---1----|----2----|----3----|----4----|----5----|----6----|----7----|----8----|----9----|---10----|
/BCS/4
bcs3_110_000
#  Tra rot   skew_ID  grnod_ID
   110 000         0         5
/GRNOD/NODE/5
bcs3_110_000
        40
#---1----|----2----|----3----|----4----|----5----|----6----|----7----|----8----|----9----|---10----|
#-  5. PARTS:
#---1----|----2----|----3----|----4----|----5----|----6----|----7----|----8----|----9----|---10----|
/PART/1
Part number 60
        60        30         0
#---1----|----2----|----3----|----4----|----5----|----6----|----7----|----8----|----9----|---10----|
# SHELL elements of /PART/1/Part number 60:
#---1----|----2----|----3----|----4----|----5----|----6----|----7----|----8----|----9----|---10----|
/SHELL/1
       100        10        20        30        40
#---1----|----2----|----3----|----4----|----5----|----6----|----7----|----8----|----9----|---10----|
/PART/2
Part number 60
        61        30         0
#---1----|----2----|----3----|----4----|----5----|----6----|----7----|----8----|----9----|---10----|
# SHELL elements of /PART/2/Part number 60:
#---1----|----2----|----3----|----4----|----5----|----6----|----7----|----8----|----9----|---10----|
/SHELL/2
       101        10        20        30        40
#---1----|----2----|----3----|----4----|----5----|----6----|----7----|----8----|----9----|---10----|
/PART/3
Part number 60
        62        30         0
#---1----|----2----|----3----|----4----|----5----|----6----|----7----|----8----|----9----|---10----|
# SHELL elements of /PART/3/Part number 60:
#---1----|----2----|----3----|----4----|----5----|----6----|----7----|----8----|----9----|---10----|
/SHELL/3
       102        10        20        30        40
#---1----|----2----|----3----|----4----|----5----|----6----|----7----|----8----|----9----|---10----|
#-  6. GEOMETRICAL SETS:
#---1----|----2----|----3----|----4----|----5----|----6----|----7----|----8----|----9----|---10----|
/PROP/SH_SANDW/60
Part number 60
#   Ishell    Ismstr     Ish3n    Idrill                            P_thick_fail
         0         0         0         0                                       0
#                 hm                  hf                  hr                  dm                  dn
                   0                   0                   0                   0                   0
#        N   Istrain               Thick              Ashear              Ithick     Iplas
         2         0                   6                   0                   0         0
#                 Vx                  Vy                  Vz   Skew_ID     Iorth      Ipos
                   1                   0                   0         0         0         0
#                Phi                   t                   Z    mat_ID
                  45                   3                   0        30                              
                 -45                   3                   0        30                              
#---1----|----2----|----3----|----4----|----5----|----6----|----7----|----8----|----9----|---10----|
/PROP/SH_SANDW/61
Part number 60
#   Ishell    Ismstr     Ish3n    Idrill                            P_thick_fail
         0         0         0         0                                       0
#                 hm                  hf                  hr                  dm                  dn
                   0                   0                   0                   0                   0
#        N   Istrain               Thick              Ashear              Ithick     Iplas
         2         0                   6                   0                   0         0
#                 Vx                  Vy                  Vz   Skew_ID     Iorth      Ipos
                   1                   0                   0         0         0         0
#                Phi                   t                   Z    mat_ID
                   0                   3                   0        30                              
                   0                   3                   0        30                              
#---1----|----2----|----3----|----4----|----5----|----6----|----7----|----8----|----9----|---10----|
/PROP/SH_SANDW/62
Part number 60
#   Ishell    Ismstr     Ish3n    Idrill                            P_thick_fail
         0         0         0         0                                       0
#                 hm                  hf                  hr                  dm                  dn
                   0                   0                   0                   0                   0
#        N   Istrain               Thick              Ashear              Ithick     Iplas
         2         0                   6                   0                   0         0
#                 Vx                  Vy                  Vz   Skew_ID     Iorth      Ipos
                   1                   0                   0         0         0         0
#                Phi                   t                   Z    mat_ID
                  90                   3                   0        30                              
                  90                   3                   0        30                              
#---1----|----2----|----3----|----4----|----5----|----6----|----7----|----8----|----9----|---10----|
#-  7. FUNCTIONS:
#---1----|----2----|----3----|----4----|----5----|----6----|----7----|----8----|----9----|---10----|
/FUNCT/1
function_1
#                  X                   Y
                   0                   1
               27000                   1
#---1----|----2----|----3----|----4----|----5----|----6----|----7----|----8----|----9----|---10----|
#-  8. IMPOSED VELOCITIES:
#---1----|----2----|----3----|----4----|----5----|----6----|----7----|----8----|----9----|---10----|
/IMPVEL/1
fixvel_1
#funct_IDT       Dir   skew_ID sensor_ID  grnod_ID  frame_ID     Icoor
         1         X         0         0         6         0         0
#           Ascale_x            Fscale_Y              Tstart               Tstop
                   1                   1                   0                   0
/GRNOD/NODE/6
fixvel_1
        20        30
#---1----|----2----|----3----|----4----|----5----|----6----|----7----|----8----|----9----|---10----|
#-  9. NODE GROUPS:
#---1----|----2----|----3----|----4----|----5----|----6----|----7----|----8----|----9----|---10----|
/GRNOD/NODE/7
NULL
        30        40
#---1----|----2----|----3----|----4----|----5----|----6----|----7----|----8----|----9----|---10----|
#- 10. TIME HISTORIES:
#---1----|----2----|----3----|----4----|----5----|----6----|----7----|----8----|----9----|---10----|
/TH/PART/1
Part selection
#     var1      var2      var3      var4      var5      var6      var7      var8      var9     var10
DEF       
#     Obj1      Obj2      Obj3      Obj4      Obj5      Obj6      Obj7      Obj8      Obj9     Obj10
         1         2         3
#---1----|----2----|----3----|----4----|----5----|----6----|----7----|----8----|----9----|---10----|
/TH/NODE/2
th_nodes
#     var1      var2      var3      var4      var5      var6      var7      var8      var9     var10
DEF       
#    NODid     Iskew                                           NODname
        10         0                                                                                
        20         0                                                                                
        30         0                                                                                
        40         0                                                                                
#---1----|----2----|----3----|----4----|----5----|----6----|----7----|----8----|----9----|---10----|
/TH/SHEL/3
th_Shell
#     var1      var2      var3      var4      var5      var6      var7      var8      var9     var10
DEF       
#     Elid   Skew_ID                                            Elname
       100         0                                                                                
       101         0                                                                                
       102         0                                                                                
#---1----|----2----|----3----|----4----|----5----|----6----|----7----|----8----|----9----|---10----|
/END
#---1----|----2----|----3----|----4----|----5----|----6----|----7----|----8----|----9----|---10----|
