#RADIOSS STARTER
# Copyright (C) 2022 Altair Engineering Inc. ("Holder")
# Model is licensed by Holder under CC BY-NC 4.0
# (https://creativecommons.org/licenses/by-nc/4.0/legalcode).
#--------------------------------------------------------------------------------------------------|
#- RADIOSS DECK WRITTEN BY HyperCrash
#HyperCrash 9.0 (64 bits) 
#Thu Jul 31 18:20:56 2008
#-
#-
#- DATE	Thu Jul 31 18:20:56 2008
#--------------------------------------------------------------------------------------------------|
/BEGIN
HYPE_SUB               
       100         0                   
                  kg                   m                   s
                                                            
#---1----|----2----|----3----|----4----|----5----|----6----|----7----|----8----|----9----|---10----|
#/UNIT/LENGTH/m
#/UNIT/MASS/kg
#/UNIT/TIME/s
#---1----|----2----|----3----|----4----|----5----|----6----|----7----|----8----|----9----|---10----|
#-  1. CONTROL CARDS:
#---1----|----2----|----3----|----4----|----5----|----6----|----7----|----8----|----9----|---10----|
/TITLE
HYP2V21  SPHERE IMPACT V=2500 M/S
/MEMORY
#   MEMORY                        REAL%%
         0                             0
/SPMD
#   DOMDEC      SPMD              DECMOT
         0         4                   0
/IOFLAG
#     IPRI     IRTYP     IGTYP     IOUTP    IOUTYY   IROOTYY                                 IRTYP_R
         1         0         0         0         0         0                                       0
/ANALY
#    N2D3D     INTEG   IPARITH      ISUB
         2         0         0         0
/DEF_SOLID
#  B_HOURG   B_SSTRN                                                      Iframe
         0         0                                                           0
/DEF_SHELL
#  S_HOURG   S_SSTRN   S_THICK   S_PLAST    S_STRN                        I_SH3N
         0         0         0         0         0                             1
/SHFRA/V4
/RANDOM
#   Random-Noise
                   0
#---1----|----2----|----3----|----4----|----5----|----6----|----7----|----8----|----9----|---10----|
//SUBMODEL/1


#---1----|----2----|----3----|----4----|----5----|----6----|----7----|----8----|----9----|---10----|
#-  2. MATERIALS:
#---1----|----2----|----3----|----4----|----5----|----6----|----7----|----8----|----9----|---10----|
/MAT/HYD_JCOOK/1
ALU 2024 T1
#        Init. dens.          Ref. dens.
                2.77                   0
#                 E0                  nu
                 .74                 .34
#                  A                   B                   n              epsmax              sigmax
              .00265              .00426                 .34                   0                   0
#                 C0                  C1                  C2                  C3
                   0                 .79                1.51                   0
#               Pmin                 Psh
               -.005                   0
#                 C4                  C5                  E0
                  .3                  .3                   0
#                  C                EPS0                   M               Tmelt               Tmax
                .015                1E-6                   1                1075                   0
#              RHOCP
             2.48E-5
#---1----|----2----|----3----|----4----|----5----|----6----|----7----|----8----|----9----|---10----|
/MAT/HYD_JCOOK/2
acier 1006
#        Init. dens.          Ref. dens.
                7.89                   0
#                 E0                  nu
                 2.1                  .3
#                  A                   B                   n              epsmax              sigmax
               .0035              .00275                 .36                   0                   0
#                 C0                  C1                  C2                  C3
                   0                1.69                 3.1                   0
#               Pmin                 Psh
               -.015                   0
#                 C4                  C5                  E0
                1.83                1.83                   0
#                  C                EPS0                   M               Tmelt               Tmax
                .022                1E-6                   1                1811                2000
#              RHOCP
             3.57E-5
#---1----|----2----|----3----|----4----|----5----|----6----|----7----|----8----|----9----|---10----|
/MAT/HYD_JCOOK/3
acier 1006
#        Init. dens.          Ref. dens.
                7.89                   0
#                 E0                  nu
                 2.1                  .3
#                  A                   B                   n              epsmax              sigmax
               .0035              .00275                 .36                   0                   0
#                 C0                  C1                  C2                  C3
                   0                1.69                 3.1                   0
#               Pmin                 Psh
               -.015                   0
#                 C4                  C5                  E0
                1.83                1.83                   0
#                  C                EPS0                   M               Tmelt               Tmax
                .022                1E-6                   1                1811                2000
#              RHOCP
             3.57E-5
#---1----|----2----|----3----|----4----|----5----|----6----|----7----|----8----|----9----|---10----|
#-  3. NODES:
#---1----|----2----|----3----|----4----|----5----|----6----|----7----|----8----|----9----|---10----|
/NODE
         1                   0                   0                   0
         2                   0                   0           -.0333333
         3                   0                   0           -.0666666
         4                   0                   0           -.0999999
         5                   0                   0           -.1333332
         6                   0                   0           -.1666665
         7                   0                   0                 -.2
         8                   0            .0666667                   0
         9                   0            .0666667           -.0333333
        10                   0            .0666667           -.0666666
        11                   0            .0666667           -.0999999
        12                   0            .0666667           -.1333332
        13                   0            .0666667           -.1666665
        14                   0            .0666667                 -.2
        15                   0            .1333333                   0
        16                   0            .1333333           -.0333333
        17                   0            .1333333           -.0666666
        18                   0            .1333333           -.0999999
        19                   0            .1333333           -.1333332
        20                   0            .1333333           -.1666665
# ... 1124 like lines cut
#---1----|----2----|----3----|----4----|----5----|----6----|----7----|----8----|----9----|---10----|
#-  4. BOUNDARY CONDITIONS:
#---1----|----2----|----3----|----4----|----5----|----6----|----7----|----8----|----9----|---10----|
/BCS/1
HYP2V21D00_bcs1_010_000
#   trarot   Skew_id   Gnod_id
   010 000         0         2
/GRNOD/NODE/2
HYP2V21D00_bcs1_010_000
         1         2         3         4         5         6         7       323       324       325
       326       327       328       329       330       331       332       333       334       335
       336       337       338       339       340       341       342       343       974       975
       976       977       978       979      1010      1011      1012      1013      1014      1065
      1071      1077      1083      1089      1140      1141      1142      1143      1144
#---1----|----2----|----3----|----4----|----5----|----6----|----7----|----8----|----9----|---10----|
/BCS/2
HYP2V21D00_bcs2_011_000
#   trarot   Skew_id   Gnod_id
   011 000         0         3
/GRNOD/NODE/3
HYP2V21D00_bcs2_011_000
       316       317       318       319       320       321       322       953       954       955
       956       957       958       959       960       961       962       963       964       965
       966       967       968       969       970       971       972       973
#---1----|----2----|----3----|----4----|----5----|----6----|----7----|----8----|----9----|---10----|
#-  5. PARTS:
#---1----|----2----|----3----|----4----|----5----|----6----|----7----|----8----|----9----|---10----|
/PART/1
ALU 2024 T1
         1         1         0
#---1----|----2----|----3----|----4----|----5----|----6----|----7----|----8----|----9----|---10----|
# QUAD elements of /PART/1/ALU 2024 T1:
#---1----|----2----|----3----|----4----|----5----|----6----|----7----|----8----|----9----|---10----|
/QUAD/1
         1         1         2         9         8
         2         2         3        10         9
         3         3         4        11        10
         4         4         5        12        11
         5         5         6        13        12
         6         6         7        14        13
         7         8         9        16        15
         8         9        10        17        16
         9        10        11        18        17
        10        11        12        19        18
        11        12        13        20        19
        12        13        14        21        20
        13        15        16        23        22
        14        16        17        24        23
        15        17        18        25        24
        16        18        19        26        25
        17        19        20        27        26
        18        20        21        28        27
        19        22        23        30        29
        20        23        24        31        30
# ... 250 like lines cut
#---1----|----2----|----3----|----4----|----5----|----6----|----7----|----8----|----9----|---10----|
/PART/2
acier 1006
         2         2         0
#---1----|----2----|----3----|----4----|----5----|----6----|----7----|----8----|----9----|---10----|
# QUAD elements of /PART/2/acier 1006:
#---1----|----2----|----3----|----4----|----5----|----6----|----7----|----8----|----9----|---10----|
/QUAD/2
       271       323       324       345       344
       272       324       325       346       345
       273       325       326       347       346
       274       326       327       348       347
       275       327       328       349       348
       276       328       329       350       349
       277       329       330       351       350
       278       330       331       352       351
       279       331       332       353       352
       280       332       333       354       353
       281       333       334       355       354
       282       334       335       356       355
       283       335       336       357       356
       284       336       337       358       357
       285       337       338       359       358
       286       338       339       360       359
       287       339       340       361       360
       288       340       341       362       361
       289       341       342       363       362
       290       342       343       364       363
# ... 580 like lines cut
#---1----|----2----|----3----|----4----|----5----|----6----|----7----|----8----|----9----|---10----|
/PART/3
acier 1006
         3         3         0
#---1----|----2----|----3----|----4----|----5----|----6----|----7----|----8----|----9----|---10----|
# QUAD elements of /PART/3/acier 1006:
#---1----|----2----|----3----|----4----|----5----|----6----|----7----|----8----|----9----|---10----|
/QUAD/3
       871       974       975       981       980
       872       975       976       982       981
       873       976       977       983       982
       874       977       978       984       983
       875       978       979       985       984
       876       980       981       987       986
       877       981       982       988       987
       878       982       983       989       988
       879       983       984       990       989
       880       984       985       991       990
       881       986       987       993       992
       882       987       988       994       993
       883       988       989       995       994
       884       989       990       996       995
       885       990       991       997       996
       886       992       993       999       998
       887       993       994      1000       999
       888       994       995      1001      1000
       889       995       996      1002      1001
       890       996       997      1003      1002
# ... 130 like lines cut
#---1----|----2----|----3----|----4----|----5----|----6----|----7----|----8----|----9----|---10----|
#-  6. GEOMETRICAL SETS:
#---1----|----2----|----3----|----4----|----5----|----6----|----7----|----8----|----9----|---10----|
/PROP/SOLID/1
ALU 2024 T1
#   Isolid    Ismstr               Icpre               Inpts              Iframe                  dn
         0         0                   0                 222                   0                   0
#                q_a                 q_b                   h
                   0                   0                   0
#             dt_min
                   0
#---1----|----2----|----3----|----4----|----5----|----6----|----7----|----8----|----9----|---10----|
/PROP/SOLID/2
acier 1006
#   Isolid    Ismstr               Icpre               Inpts              Iframe                  dn
         0         0                   0                 222                   0                   0
#                q_a                 q_b                   h
                   0                   0                   0
#             dt_min
                   0
#---1----|----2----|----3----|----4----|----5----|----6----|----7----|----8----|----9----|---10----|
/PROP/SOLID/3
acier 1006
#   Isolid    Ismstr               Icpre               Inpts              Iframe                  dn
         0         0                   0                 222                   0                   0
#                q_a                 q_b                   h
                   0                   0                   0
#             dt_min
                   0
#---1----|----2----|----3----|----4----|----5----|----6----|----7----|----8----|----9----|---10----|
#-  7. INITIAL VELOCITIES:
#---1----|----2----|----3----|----4----|----5----|----6----|----7----|----8----|----9----|---10----|
/INIVEL/TRA/1
HYP2V21D00_inivel_1
#                 Vx                  Vy                  Vz   Gnod_id   Skew_id
                   0                   0                -.25         4         0
/GRNOD/NODE/4
HYP2V21D00_inivel_1
       974       975       976       977       978       979       980       981       982       983
       984       985       986       987       988       989       990       991       992       993
       994       995       996       997       998       999      1000      1001      1002      1003
      1004      1005      1006      1007      1008      1009      1010      1011      1012      1013
      1014      1015      1016      1017      1018      1019      1020      1021      1022      1023
      1024      1025      1026      1027      1028      1029      1030      1031      1032      1033
      1034      1035      1036      1037      1038      1039      1040      1041      1042      1043
      1044      1045      1046      1047      1048      1049      1050      1051      1052      1053
      1054      1055      1056      1057      1058      1059      1060      1061      1062      1063
      1064      1065      1066      1067      1068      1069      1070      1071      1072      1073
      1074      1075      1076      1077      1078      1079      1080      1081      1082      1083
      1084      1085      1086      1087      1088      1089      1090      1091      1092      1093
      1094      1095      1096      1097      1098      1099      1100      1101      1102      1103
      1104      1105      1106      1107      1108      1109      1110      1111      1112      1113
      1114      1115      1116      1117      1118      1119      1120      1121      1122      1123
      1124      1125      1126      1127      1128      1129      1130      1131      1132      1133
      1134      1135      1136      1137      1138      1139      1140      1141      1142      1143
      1144
#---1----|----2----|----3----|----4----|----5----|----6----|----7----|----8----|----9----|---10----|
#-  8. SENSORS:
#---1----|----2----|----3----|----4----|----5----|----6----|----7----|----8----|----9----|---10----|
/SENSOR/TIME/2
sens2
#         Tdelay
                  .5
#---1----|----2----|----3----|----4----|----5----|----6----|----7----|----8----|----9----|---10----|
/SENSOR/SENS/3
sens1
#         Tdelay
                  .5
#    sens1     sens2
         2         0
#---1----|----2----|----3----|----4----|----5----|----6----|----7----|----8----|----9----|---10----|
/SENSOR/TIME/5
sens1
#         Tdelay
                  .5
#---1----|----2----|----3----|----4----|----5----|----6----|----7----|----8----|----9----|---10----|
#-  9. INTERFACES:
#---1----|----2----|----3----|----4----|----5----|----6----|----7----|----8----|----9----|---10----|
/INTER/TYPE5/1
HYP2V30D00_interface_1
#  Slav_id   Mast_id                                              Ibag      Idel
         6         7                                                 0         0
#              STFAC                FRIC                 GAP              Tstart               Tstop
                  .4                   0                   0                   0                   0
#     I_BC                I_RM
       000                   0
#    Ifric    Ifiltr               Xfreq
         0         0                   0
/GRNOD/SURF/6
HYP2V30D00_interface_1_surf_1
         5
/SURF/SEG/5
HYP2V30D00_interface_1_surf_1
         1         8         1
         2         2         9
         3         3        10
         4         4        11
         5         5        12
         6         6        13
         7         7        14
         8        15         8
         9         9        16
        10        10        17
        11        11        18
        12        12        19
        13        13        20
        14        14        21
        15        22        15
        16        16        23
        17        17        24
        18        18        25
        19        19        26
        20        20        27
# ... 211 like lines cut
/SURF/SEG/7
HYP2V30D00_interface_1_surf_2
       346      1019      1014
       347      1024      1019
       348      1029      1024
       349      1034      1029
       350      1039      1034
       351      1044      1039
       352      1049      1044
       353      1054      1049
       354      1059      1054
       355      1064      1059
       356      1099      1064
       357      1104      1099
       358      1109      1104
       359      1114      1109
       360      1119      1114
#---1----|----2----|----3----|----4----|----5----|----6----|----7----|----8----|----9----|---10----|
/INTER/TYPE3/2
HYP2V30D00_interface_2
#  Srf1_id   Srf2_id                                                        Idel
         8         9                                                           0
#              STFAC                FRIC                 GAP              Tstart               Tstop
                  .5                   0                   0                   0                   0
#     I_BC      I_RS      I_RM
       000         0         0
/SURF/SEG/8
HYP2V30D00_interface_2_surf_1
       257       344       323
       261       365       344
       264       386       365
       267       407       386
       270       428       407
       273       449       428
       276       470       449
       279       491       470
       282       512       491
       285       533       512
       288       554       533
       291       575       554
       294       596       575
       297       617       596
       300       638       617
       303       659       638
       306       680       659
       309       701       680
       312       722       701
       315       743       722
# ... 10 like lines cut
/SURF/SEG/9
HYP2V30D00_interface_2_surf_2
       346      1019      1014
       347      1024      1019
       348      1029      1024
       349      1034      1029
       350      1039      1034
       351      1044      1039
       352      1049      1044
       353      1054      1049
       354      1059      1054
       355      1064      1059
       356      1099      1064
       357      1104      1099
       358      1109      1104
       359      1114      1109
       360      1119      1114
#---1----|----2----|----3----|----4----|----5----|----6----|----7----|----8----|----9----|---10----|
/INTER/TYPE3/3
HYP2V30D00_interface_3
#  Srf1_id   Srf2_id                                                        Idel
        10        11                                                           0
#              STFAC                FRIC                 GAP              Tstart               Tstop
                  .4                   0                   0                   0                   0
#     I_BC      I_RS      I_RM
       000         0         0
/SURF/SEG/10
HYP2V30D00_interface_3_surf_1
         7         7        14
        14        14        21
        21        21        28
        28        28        35
        35        35        42
        48        42        49
        61        49        56
        74        56        63
        87        63        70
       100        70        77
       113        77        84
       126        84        91
       139        91        98
       152        98       105
       165       105       112
       178       112       119
       185       119       126
       192       126       133
       199       133       140
       206       140       147
# ... 25 like lines cut
/SURF/SEG/11
HYP2V30D00_interface_3_surf_2
       257       344       323
       261       365       344
       264       386       365
       267       407       386
       270       428       407
       273       449       428
       276       470       449
       279       491       470
       282       512       491
       285       533       512
       288       554       533
       291       575       554
       294       596       575
       297       617       596
       300       638       617
       303       659       638
       306       680       659
       309       701       680
       312       722       701
       315       743       722
# ... 10 like lines cut
#---1----|----2----|----3----|----4----|----5----|----6----|----7----|----8----|----9----|---10----|
/INTER/TYPE5/4
HYP2V30D00_interface_4
#  Slav_id   Mast_id                                              Ibag      Idel
        13        14                                                 0         0
#              STFAC                FRIC                 GAP              Tstart               Tstop
                  .4                   0                   0                   0                   0
#     I_BC                I_RM
       000                   0
#    Ifric    Ifiltr               Xfreq
         0         0                   0
/GRNOD/SURF/13
HYP2V30D00_interface_4_surf_1
        12
/SURF/SEG/12
HYP2V30D00_interface_4_surf_1
       257       344       323
       258       345       324
       259       351       330
       260       358       337
       261       365       344
       262       372       351
       263       379       358
       264       386       365
       265       393       372
       266       400       379
       267       407       386
       268       414       393
       269       421       400
       270       428       407
       271       435       414
       272       442       421
       273       449       428
       274       456       435
       275       463       442
       276       470       449
# ... 69 like lines cut
/SURF/SEG/14
HYP2V30D00_interface_4_surf_2
       208       147       154
       210       154       161
       212       161       168
       214       168       175
       216       175       182
       218       182       189
       220       189       196
       222       196       203
       224       203       210
       226       210       217
       228       217       224
       230       224       231
       232       231       238
       234       238       245
       236       245       252
       238       252       259
       240       259       266
       242       266       273
       244       273       280
       246       280       287
# ... 5 like lines cut
#---1----|----2----|----3----|----4----|----5----|----6----|----7----|----8----|----9----|---10----|
#- 10. ACTIVATIONS:
#---1----|----2----|----3----|----4----|----5----|----6----|----7----|----8----|----9----|---10----|
/ACTIV/4
act1
#   sensor   grbrick    grquad    grshel    grtrus    grbeam    grspri    grsh3n
         3         0        18         0         0         0         0         0
/GRQUAD/QUAD/18
quad
       904       909       914
#---1----|----2----|----3----|----4----|----5----|----6----|----7----|----8----|----9----|---10----|
#- 11. TIME HISTORIES:
#---1----|----2----|----3----|----4----|----5----|----6----|----7----|----8----|----9----|---10----|
/TH/PART/1
Part selection
#     var1      var2      var3      var4      var5      var6      var7      var8      var9     var10
DEF       
#     Obj1      Obj2      Obj3      Obj4      Obj5      Obj6      Obj7      Obj8      Obj9     Obj10
         1         2         3
#---1----|----2----|----3----|----4----|----5----|----6----|----7----|----8----|----9----|---10----|
/TH/NODE/2
HYP2V30D00_th_nodes
#     var1      var2      var3      var4      var5      var6      var7      var8      var9     var10
DEF       
#    NODid     Iskew                                           NODname
         3         0                                                                                
       330         0                                                                                
      1010         0                                                                                
#---1----|----2----|----3----|----4----|----5----|----6----|----7----|----8----|----9----|---10----|
/TH/QUAD/3
HYP2V30D00_th_2Dsolid
#     var1      var2      var3      var4      var5      var6      var7      var8      var9     var10
DEF       
#    NODid                                                     NODname
         1                                                                                          
         6                                                                                          
       271                                                                                          
       290                                                                                          
       871                                                                                          
       900                                                                                          
       904                                                                                          
       909                                                                                          
       914                                                                                          
      1020                                                                                          
#---1----|----2----|----3----|----4----|----5----|----6----|----7----|----8----|----9----|---10----|
//ENDSUB
#---1----|----2----|----3----|----4----|----5----|----6----|----7----|----8----|----9----|---10----|
#include qadiags.inc
/END
#---1----|----2----|----3----|----4----|----5----|----6----|----7----|----8----|----9----|---10----|
