#RADIOSS STARTER
# Copyright (C) 2023 Altair Engineering Inc. ("Holder")
# Model is licensed by Holder under CC BY-NC 4.0
# (https://creativecommons.org/licenses/by-nc/4.0/legalcode).
# Copyright (C) 2022 Altair Engineering Inc. ("Holder")
# Model is licensed by Holder under CC BY-NC 4.0
# (https://creativecommons.org/licenses/by-nc/4.0/legalcode).
#--------------------------------------------------------------------------------------------------|
#- RADIOSS DECK WRITTEN BY HyperCrash
#HyperCrash 2022 (64 bits) 
#Fri May 20 16:55:13 2022
#-
#-
#- DATE	Fri May 20 16:55:13 2022
#--------------------------------------------------------------------------------------------------|
#---1----|----2----|----3----|----4----|----5----|----6----|----7----|----8----|----9----|---10----|
/BEGIN
FILE                                                                            
      2022         0
                   1                   1                   1
                   1                   1                   1
#---1----|----2----|----3----|----4----|----5----|----6----|----7----|----8----|----9----|---10----|
#-  1. CONTROL CARDS:
#---1----|----2----|----3----|----4----|----5----|----6----|----7----|----8----|----9----|---10----|
/TITLE

#---1----|----2----|----3----|----4----|----5----|----6----|----7----|----8----|----9----|---10----|
/ANALY
#    N2D3D             IPARITH      ISUB
         0                   0         0
#---1----|----2----|----3----|----4----|----5----|----6----|----7----|----8----|----9----|---10----|
/IOFLAG
#     IPRI                         IOUTP    IOUTYY   IROOTYY     IDROT
         0                             0         0         0         0
#---1----|----2----|----3----|----4----|----5----|----6----|----7----|----8----|----9----|---10----|
/RANDOM
#       Random-Noise                Seed
                   0                   0
#---1----|----2----|----3----|----4----|----5----|----6----|----7----|----8----|----9----|---10----|
#-  2. REFSTA:
#---1----|----2----|----3----|----4----|----5----|----6----|----7----|----8----|----9----|---10----|
#-  3. MATERIALS:
#---1----|----2----|----3----|----4----|----5----|----6----|----7----|----8----|----9----|---10----|
/MAT/OGDEN/1
rubber
#              RHO_I
                 940
#                 Nu           sigma_cut           funIDbulk         Fscale_bulk         M     Iform
                .495                   0                   0                   0         0         0
#               Mu_1                Mu_2                Mu_3                Mu_4                Mu_5
               827.6                  55                   0                   0                   0
# blank card

#            alpha_1             alpha_2             alpha_3             alpha_4             alpha_5
                   2                  -2                   0                   0                   0
# blank card

#---1----|----2----|----3----|----4----|----5----|----6----|----7----|----8----|----9----|---10----|
#-  4. NODES:
#---1----|----2----|----3----|----4----|----5----|----6----|----7----|----8----|----9----|---10----|
/NODE
         1                   5                  -5                   0
         2                   5                  -4                   0
         3                   5                  -3                   0
         4                   5                  -2                   0
         5                   5                  -1                   0
         6                   5     -7.25266342E-16                   0
         7                   5                   1                   0
         8                   5                   2                   0
         9                   5                   3                   0
        10                   5                   4                   0
        11                   5                   5                   0
        12                   4                   5                   0
        13                   3                   5                   0
        14                   2                   5                   0
        15                   1                   5                   0
        16    3.3290021883E-17                   5                   0
        17                  -1                   5                   0
        18                  -2                   5                   0
        19                  -3                   5                   0
        20                  -4                   5                   0
# ... 1311 like lines cut
#---1----|----2----|----3----|----4----|----5----|----6----|----7----|----8----|----9----|---10----|
#-  5. BOUNDARY CONDITIONS:
#---1----|----2----|----3----|----4----|----5----|----6----|----7----|----8----|----9----|---10----|
/BCS/1
New BCS 1
#  Tra rot   skew_ID  grnod_ID
   001 000         0         2
/GRNOD/NODE/2
New GRNOD 1 _nodes_subsubgroup_
         1         2         3         4         5         6         7         8         9        10
        11        12        13        14        15        16        17        18        19        20
        21        22        23        24        25        26        27        28        29        30
        31        32        33        34        35        36        37        38        39        40
        41        42        43        44        45        46        47        48        49        50
        51        52        53        54        55        56        57        58        59        60
        61        62        63        64        65        66        67        68        69        70
        71        72        73        74        75        76        77        78        79        80
        81        82        83        84        85        86        87        88        89        90
        91        92        93        94        95        96        97        98        99       100
       101       102       103       104       105       106       107       108       109       110
       111       112       113       114       115       116       117       118       119       120
       121
#---1----|----2----|----3----|----4----|----5----|----6----|----7----|----8----|----9----|---10----|
#-  6. PARTS:
#---1----|----2----|----3----|----4----|----5----|----6----|----7----|----8----|----9----|---10----|
/PART/1
mousse
         1         1         0
#---1----|----2----|----3----|----4----|----5----|----6----|----7----|----8----|----9----|---10----|
# BRICK elements of /PART/1/mousse:
#---1----|----2----|----3----|----4----|----5----|----6----|----7----|----8----|----9----|---10----|
/BRICK/1
       101        55        58        59        54       122       123       124       125
       102        54        59        50        51       125       124       126       127
       103        58        43        44        59       123       128       129       124
       104        59        44        45        50       124       129       130       126
       105        56        60        58        55       131       132       123       122
       106        60        42        43        58       132       133       128       123
       107        24        25        61        57       134       135       136       137
       108        57        61        60        56       137       136       132       131
       109        25        26        41        61       135       138       139       136
       110        61        41        42        60       136       139       133       132
       111        18        62        64        17       140       141       142       143
       112        17        64        53        16       143       142       144       145
       113        62        63        65        64       141       146       147       142
       114        64        65        52        53       142       147       148       144
       115        63        55        54        65       146       122       125       147
       116        65        54        51        52       147       125       127       148
       117        21        22        66        20       149       150       151       152
       118        20        66        67        19       152       151       153       154
       119        19        67        62        18       154       153       141       140
       120        57        68        23        24       137       155       156       134
# ... 980 like lines cut
#---1----|----2----|----3----|----4----|----5----|----6----|----7----|----8----|----9----|---10----|
#-  7. GEOMETRICAL SETS:
#---1----|----2----|----3----|----4----|----5----|----6----|----7----|----8----|----9----|---10----|
/PROP/SOLID/1
an isotropic solid property
#   Isolid    Ismstr               Icpre  Itetra10     Inpts   Itetra4    Iframe                  dn
         1         0                   0         0         0         0         2                   0
#                q_a                 q_b                   h            LAMBDA_V                MU_V
               1E-30               1E-30                   0                   0                   0
#             dt_min
                   0
#---1----|----2----|----3----|----4----|----5----|----6----|----7----|----8----|----9----|---10----|
#-  8. FUNCTIONS:
#---1----|----2----|----3----|----4----|----5----|----6----|----7----|----8----|----9----|---10----|
/FUNCT/1000
load-unload
#                  X                   Y
                   0                   0
                   1          1000000000
#---1----|----2----|----3----|----4----|----5----|----6----|----7----|----8----|----9----|---10----|
#-  9. XREF:
#---1----|----2----|----3----|----4----|----5----|----6----|----7----|----8----|----9----|---10----|
/XREF/1
refsta
#    NITRS
      1000
#  node_ID                   X                   Y                   Z
         1                   5                  -5                   0                              
         2                   5                  -4                   0                              
         3                   5                  -3                   0                              
         4                   5                  -2                   0                              
         5                   5                  -1                   0                              
         6                   5                   0                   0                              
         7                   5                   1                   0                              
         8                   5                   2                   0                              
         9                   5                   3                   0                              
        10                   5                   4                   0                              
        11                   5                   5                   0                              
        12                   4                   5                   0                              
        13                   3                   5                   0                              
        14                   2                   5                   0                              
        15                   1                   5                   0                              
        16                   0                   5                   0                              
        17                  -1                   5                   0                              
        18                  -2                   5                   0                              
        19                  -3                   5                   0                              
        20                  -4                   5                   0                              
# ... 1311 like lines cut
#---1----|----2----|----3----|----4----|----5----|----6----|----7----|----8----|----9----|---10----|
#include qadiags.inc
#---1----|----2----|----3----|----4----|----5----|----6----|----7----|----8----|----9----|---10----|
/END
#---1----|----2----|----3----|----4----|----5----|----6----|----7----|----8----|----9----|---10----|
