#RADIOSS STARTER
# Copyright (C) 2023 Altair Engineering Inc. ("Holder")
# Model is licensed by Holder under CC BY-NC 4.0
# (https://creativecommons.org/licenses/by-nc/4.0/legalcode).
# Copyright (C) 2022 Altair Engineering Inc. ("Holder")
# Model is licensed by Holder under CC BY-NC 4.0
# (https://creativecommons.org/licenses/by-nc/4.0/legalcode).
#--------------------------------------------------------------------------------------------------|
#- RADIOSS DECK WRITTEN BY HyperCrash
#HyperCrash 2019.1 (64 bits) 
#Mon Mar  9 10:15:32 2020
#-
#------------------------------------------------------------------------------|
#- RADIOSS DECK / GENERATED BY HELIOSS 3.1.b
#-
#- DATE	Mon Aug 30 12:56:06 2004
#------------------------------------------------------------------------------|
#
#-
#- DATE	Mon Mar  9 10:15:32 2020
#--------------------------------------------------------------------------------------------------|
#---1----|----2----|----3----|----4----|----5----|----6----|----7----|----8----|----9----|---10----|
/BEGIN
BAR2V41B                                                                        
      2019         0
                  kg                   m                   s
                  kg                   m                   s
#---1----|----2----|----3----|----4----|----5----|----6----|----7----|----8----|----9----|---10----|
#-  1. CONTROL CARDS:
#---1----|----2----|----3----|----4----|----5----|----6----|----7----|----8----|----9----|---10----|
/TITLE
BAR2V21 IMPACT 227M/S TEST ALE ELASTOPLAST
#---1----|----2----|----3----|----4----|----5----|----6----|----7----|----8----|----9----|---10----|
#include qadiags.inc
#---1----|----2----|----3----|----4----|----5----|----6----|----7----|----8----|----9----|---10----|
/ALE/GRID/DONEA
#              alpha               gamma             Fscalex             Fscaley             Fscalez
         .0500000007                   1                   0                   0                   0
#               Vmin
                   0
#---1----|----2----|----3----|----4----|----5----|----6----|----7----|----8----|----9----|---10----|
/ANALY
#    N2D3D             IPARITH      ISUB
         1                   0         0
#---1----|----2----|----3----|----4----|----5----|----6----|----7----|----8----|----9----|---10----|
/DEF_SHELL
#   ISHELL    ISMSTR    ITHICK     IPLAS   ISTRAIN                        I_SH3N     IDRIL
         0         0         0         0         0                             1         0
#---1----|----2----|----3----|----4----|----5----|----6----|----7----|----8----|----9----|---10----|
/DEF_SOLID
#  I_SOLID    ISMSTR             ISTRAIN                                  IFRAME
         0         0                   0                                       0
#---1----|----2----|----3----|----4----|----5----|----6----|----7----|----8----|----9----|---10----|
/IOFLAG
#     IPRI               IGTYP     IOUTP    IOUTYY   IROOTYY     IDROT
         5                   0         0         0         0         0
#---1----|----2----|----3----|----4----|----5----|----6----|----7----|----8----|----9----|---10----|
/RANDOM
#       Random-Noise                Seed
                   0                   0
#---1----|----2----|----3----|----4----|----5----|----6----|----7----|----8----|----9----|---10----|
/SPMD
#   DOMDEC     Nproc              Dkword             Nthread
         0         0                   0                   1
#---1----|----2----|----3----|----4----|----5----|----6----|----7----|----8----|----9----|---10----|
/SHFRA/V4
#---1----|----2----|----3----|----4----|----5----|----6----|----7----|----8----|----9----|---10----|
#-  2. MATERIALS:
#---1----|----2----|----3----|----4----|----5----|----6----|----7----|----8----|----9----|---10----|
/MAT/LAW49/4
LOI STEINBERG_ CUIVRE
#               RHO_0
          8.93000031
#                 E0                  nu
                1.16                 .35
#            sigma_0                beta                   n             EPS_max           SIGMA_max
                .004                 .25                   1                   0                   0
#                T_0               Tmelt              rhoC_p                Pmin
                 300                1E30            3.409E-5               -1E30
#                 b1                  b2                   h                   f
                   0                   0                   0                   0
/ALE/MAT/4
#     Modif. factor.
                   0
/EOS/POLYNOMIAL/4
Conversion of Mat Law 49 in RADIOSS 11.0 or greater
#                 C0                  C1                  C2                  C3
                   0                 1.3                   0                   0
#                 C4                  C5                  E0                 Psh               RHO_0
                   0                   0                   0                   0          8.93000031
#---1----|----2----|----3----|----4----|----5----|----6----|----7----|----8----|----9----|---10----|
/MAT/HYD_JCOOK/5
Cuivre_4
#              RHO_I               RHO_O
                8.93                8.93
#                  E                  nu
                1.16                 .35
#                  A                   B                   n              epsmax              sigmax
                .004                .001                   1                   0                   0
#               Pmin
                   0
#                  C           EPS_DOT_0                   M               Tmelt                Tmax
                   0                   0                   0                1E30                1E30
#              RHOCP                                                       Troom
            3.409E-5                                                           0
/ALE/MAT/5
#     Modif. factor.
                   0
/EOS/POLYNOMIAL/5
Conversion of Mat Law 4 in RADIOSS 11.0 or greater
#                 C0                  C1                  C2                  C3
                   0                 1.3                   0                   0
#                 C4                  C5                  E0                 Psh               RHO_0
                   0                   0                   0                   0                8.93
#---1----|----2----|----3----|----4----|----5----|----6----|----7----|----8----|----9----|---10----|
#-  3. NODES:
#---1----|----2----|----3----|----4----|----5----|----6----|----7----|----8----|----9----|---10----|
/NODE
       919                   0           .31999999                3.24
       920                   0           .25600001                3.24
       921                   0                .192                3.24
       922                   0           .12800001                3.24
       923                   0          .064000003                3.24
       924                   0                   0                3.24
       925                   0           .31999999               3.175
       926                   0           .25600001               3.175
       927                   0                .192               3.175
       928                   0           .12800001               3.175
       929                   0          .064000003               3.175
       930                   0                   0               3.175
       931                   0           .31999999           3.1099999
       932                   0           .25600001           3.1099999
       933                   0                .192           3.1099999
       934                   0           .12800001           3.1099999
       935                   0          .064000003           3.1099999
       936                   0                   0           3.1099999
       937                   0           .31999999               3.046
       938                   0           .25600001               3.046
# ... 592 like lines cut
#---1----|----2----|----3----|----4----|----5----|----6----|----7----|----8----|----9----|---10----|
#-  4. BOUNDARY CONDITIONS:
#---1----|----2----|----3----|----4----|----5----|----6----|----7----|----8----|----9----|---10----|
/BCS/2
BAR2V21D00_bcs1_111_000
#  Tra rot   skew_ID  grnod_ID
   111 000         0         2
/GRNOD/GRNOD/2
BAR2V21D00_bcs1_111_000
        19
/GRNOD/GRNOD/19
New GRNOD 17 _nodes_subgroup_
        18
/GRNOD/NODE/18
New GRNOD 17 _nodes_subsubgroup_
      1211      1518
#---1----|----2----|----3----|----4----|----5----|----6----|----7----|----8----|----9----|---10----|
/ALE/BCS/2
BAR2V21D00_bcs1_111_000
#   trarot   Skew_id   Gnod_id
   111 000         0         2
#---1----|----2----|----3----|----4----|----5----|----6----|----7----|----8----|----9----|---10----|
/BCS/4
BAR2V21D00_bcs2_101_000
#  Tra rot   skew_ID  grnod_ID
   101 000         0         3
/GRNOD/GRNOD/3
BAR2V21D00_bcs2_101_000
        22
/GRNOD/GRNOD/22
New GRNOD 20 _nodes_subgroup_
        21
/GRNOD/NODE/21
New GRNOD 20 _nodes_subsubgroup_
      1210      1212      1213      1214      1515      1517      1519      1520
#---1----|----2----|----3----|----4----|----5----|----6----|----7----|----8----|----9----|---10----|
/ALE/BCS/4
BAR2V21D00_bcs2_101_000
#   trarot   Skew_id   Gnod_id
   101 000         0         3
#---1----|----2----|----3----|----4----|----5----|----6----|----7----|----8----|----9----|---10----|
/BCS/6
BAR2V21D00_bcs3_101_000
#  Tra rot   skew_ID  grnod_ID
   101 000         0         4
/GRNOD/GRNOD/4
BAR2V21D00_bcs3_101_000
        25
/GRNOD/GRNOD/25
New GRNOD 23 _nodes_subgroup_
        24
/GRNOD/NODE/24
New GRNOD 23 _nodes_subsubgroup_
      1208      1513
#---1----|----2----|----3----|----4----|----5----|----6----|----7----|----8----|----9----|---10----|
/ALE/BCS/6
BAR2V21D00_bcs3_101_000
#   trarot   Skew_id   Gnod_id
   101 011         0         4
#---1----|----2----|----3----|----4----|----5----|----6----|----7----|----8----|----9----|---10----|
/BCS/8
BAR2V21D00_bcs4_110_000
#  Tra rot   skew_ID  grnod_ID
   110 000         0         5
/GRNOD/GRNOD/5
BAR2V21D00_bcs4_110_000
        28
/GRNOD/GRNOD/28
New GRNOD 26 _nodes_subgroup_
        27
/GRNOD/NODE/27
New GRNOD 26 _nodes_subsubgroup_
       930       936       942       948       954       960       966       972       978       984
       990       996      1002      1008      1014      1020      1026      1032      1038      1044
      1050      1056      1062      1068      1074      1080      1086      1092      1098      1104
      1110      1116      1122      1128      1134      1140      1146      1151      1157      1163
      1169      1175      1181      1187      1193      1199      1205      1207      1215      1235
      1241      1247      1253      1259      1265      1271      1277      1283      1289      1295
      1301      1307      1313      1319      1325      1331      1337      1343      1349      1355
      1361      1367      1373      1379      1385      1391      1397      1403      1409      1415
      1421      1427      1433      1439      1445      1451      1458      1464      1470      1476
      1482      1488      1494      1500      1506      1512      1514      1522
#---1----|----2----|----3----|----4----|----5----|----6----|----7----|----8----|----9----|---10----|
/ALE/BCS/8
BAR2V21D00_bcs4_110_000
#   trarot   Skew_id   Gnod_id
   110 000         0         5
#---1----|----2----|----3----|----4----|----5----|----6----|----7----|----8----|----9----|---10----|
/BCS/10
BAR2V21D00_bcs5_100_000
#  Tra rot   skew_ID  grnod_ID
   100 000         0         6
/GRNOD/GRNOD/6
BAR2V21D00_bcs5_100_000
        31
/GRNOD/GRNOD/31
New GRNOD 29 _nodes_subgroup_
        30
/GRNOD/NODE/30
New GRNOD 29 _nodes_subsubgroup_
       925       931       937       943       949       955       961       967       973       979
       985       991       997      1003      1009      1015      1021      1027      1033      1039
      1045      1051      1057      1063      1069      1075      1081      1087      1093      1099
      1105      1111      1117      1123      1129      1135      1141      1147      1152      1158
      1164      1170      1176      1182      1188      1194      1200      1206      1216      1232
      1238      1244      1250      1256      1262      1268      1274      1280      1286      1292
      1298      1304      1310      1316      1322      1328      1334      1340      1346      1352
      1358      1364      1370      1376      1382      1388      1394      1400      1406      1412
      1418      1424      1430      1436      1442      1448      1454      1457      1463      1469
      1475      1481      1487      1493      1499      1505      1511      1521
#---1----|----2----|----3----|----4----|----5----|----6----|----7----|----8----|----9----|---10----|
/ALE/BCS/10
BAR2V21D00_bcs5_100_000
#   trarot   Skew_id   Gnod_id
   100 011         0         6
#---1----|----2----|----3----|----4----|----5----|----6----|----7----|----8----|----9----|---10----|
/BCS/12
BAR2V21D00_bcs6_110_000
#  Tra rot   skew_ID  grnod_ID
   110 000         0         7
/GRNOD/GRNOD/7
BAR2V21D00_bcs6_110_000
        34
/GRNOD/GRNOD/34
New GRNOD 32 _nodes_subgroup_
        33
/GRNOD/NODE/33
New GRNOD 32 _nodes_subsubgroup_
       924      1229
#---1----|----2----|----3----|----4----|----5----|----6----|----7----|----8----|----9----|---10----|
/ALE/BCS/12
BAR2V21D00_bcs6_110_000
#   trarot   Skew_id   Gnod_id
   110 111         0         7
#---1----|----2----|----3----|----4----|----5----|----6----|----7----|----8----|----9----|---10----|
/BCS/14
BAR2V21D00_bcs7_100_000
#  Tra rot   skew_ID  grnod_ID
   100 000         0         8
/GRNOD/GRNOD/8
BAR2V21D00_bcs7_100_000
        37
/GRNOD/GRNOD/37
New GRNOD 35 _nodes_subgroup_
        36
/GRNOD/NODE/36
New GRNOD 35 _nodes_subsubgroup_
       919       920       921       922       923      1225      1226      1227      1228      1230
#---1----|----2----|----3----|----4----|----5----|----6----|----7----|----8----|----9----|---10----|
/ALE/BCS/14
BAR2V21D00_bcs7_100_000
#   trarot   Skew_id   Gnod_id
   100 111         0         8
#---1----|----2----|----3----|----4----|----5----|----6----|----7----|----8----|----9----|---10----|
#-  5. SKEWS & FRAMES:
#---1----|----2----|----3----|----4----|----5----|----6----|----7----|----8----|----9----|---10----|
/SKEW/FIX/1
BAR2V21D00_skew1
#                 OX                  OY                  OZ
                   0                   0                   0
#                 X1                  Y1                  Z1
                   0                   1                   0
#                 X2                  Y2                  Z2
                   0                   0                   1
#---1----|----2----|----3----|----4----|----5----|----6----|----7----|----8----|----9----|---10----|
#-  6. PARTS:
#---1----|----2----|----3----|----4----|----5----|----6----|----7----|----8----|----9----|---10----|
/PART/4
CUIVRE_Loi49
         1         4         0
#---1----|----2----|----3----|----4----|----5----|----6----|----7----|----8----|----9----|---10----|
# QUAD elements of /PART/4/CUIVRE_Loi49:
#---1----|----2----|----3----|----4----|----5----|----6----|----7----|----8----|----9----|---10----|
/QUAD/4
       751       926       925       919       920
       752       927       926       920       921
       753       928       927       921       922
       754       929       928       922       923
       755       930       929       923       924
       756       932       931       925       926
       757       933       932       926       927
       758       934       933       927       928
       759       935       934       928       929
       760       936       935       929       930
       761       938       937       931       932
       762       939       938       932       933
       763       940       939       933       934
       764       941       940       934       935
       765       942       941       935       936
       766       944       943       937       938
       767       945       944       938       939
       768       946       945       939       940
       769       947       946       940       941
       770       948       947       941       942
# ... 230 like lines cut
#---1----|----2----|----3----|----4----|----5----|----6----|----7----|----8----|----9----|---10----|
/PART/5
CUIVRE_Loi4
         1         5         0
#---1----|----2----|----3----|----4----|----5----|----6----|----7----|----8----|----9----|---10----|
# QUAD elements of /PART/5/CUIVRE_Loi4:
#---1----|----2----|----3----|----4----|----5----|----6----|----7----|----8----|----9----|---10----|
/QUAD/5
      1001      1439      1440      1434      1433
      1002      1506      1503      1497      1500
      1003      1491      1492      1486      1485
      1004      1417      1418      1412      1411
      1005      1427      1428      1422      1421
      1006      1431      1432      1426      1425
      1007      1461      1462      1456      1455
      1008      1526      1523      1507      1510
      1009      1435      1436      1430      1429
      1010      1445      1446      1440      1439
      1011      1517      1520      1530      1528
      1012      1433      1434      1428      1427
      1013      1472      1469      1463      1466
      1014      1476      1473      1467      1470
      1015      1438      1435      1429      1432
      1016      1464      1461      1455      1458
      1017      1440      1437      1431      1434
      1018      1437      1438      1432      1431
      1019      1503      1504      1498      1497
      1020      1508      1505      1499      1502
# ... 230 like lines cut
#---1----|----2----|----3----|----4----|----5----|----6----|----7----|----8----|----9----|---10----|
#-  7. GEOMETRICAL SETS:
#---1----|----2----|----3----|----4----|----5----|----6----|----7----|----8----|----9----|---10----|
/PROP/SOLID/1
CUIVRE
#   Isolid    Ismstr               Icpre               Inpts    Itetra    Iframe                  dn
         0         0                   0                   0         0         0                   0
#                q_a                 q_b                   h            LAMBDA_V                MU_V
                   0                   0                   0                   0                   0
#             dt_min   istrain      IHKT
                   0         0         0
#---1----|----2----|----3----|----4----|----5----|----6----|----7----|----8----|----9----|---10----|
#-  8. INITIAL VELOCITIES:
#---1----|----2----|----3----|----4----|----5----|----6----|----7----|----8----|----9----|---10----|
/INIVEL/TRA/1
BAR2V21D00_inivel_1
#                 Vx                  Vy                  Vz   Gnod_id   Skew_id
                   0                   0                   0         9         0
/GRNOD/GRNOD/9
BAR2V21D00_inivel_1
        13
/GRNOD/GRNOD/13
New GRNOD 11 _nodes_subgroup_
        12
/GRNOD/NODE/12
New GRNOD 11 _nodes_subsubgroup_
      1208      1210      1211      1212      1213      1214      1513      1515      1517      1518
      1519      1520
#---1----|----2----|----3----|----4----|----5----|----6----|----7----|----8----|----9----|---10----|
/INIVEL/T+G/2
BAR2V21D00_inivel_7
#                 Vx                  Vy                  Vz   Gnod_id   Skew_id
                   0                   0        -.0227000006        10         0
/GRNOD/GRNOD/10
BAR2V21D00_inivel_7
        16
/GRNOD/GRNOD/16
New GRNOD 14 _nodes_subgroup_
        15
/GRNOD/NODE/15
New GRNOD 14 _nodes_subsubgroup_
       919       920       921       922       923       924       925       926       927       928
       929       930       931       932       933       934       935       936       937       938
       939       940       941       942       943       944       945       946       947       948
       949       950       951       952       953       954       955       956       957       958
       959       960       961       962       963       964       965       966       967       968
       969       970       971       972       973       974       975       976       977       978
       979       980       981       982       983       984       985       986       987       988
       989       990       991       992       993       994       995       996       997       998
       999      1000      1001      1002      1003      1004      1005      1006      1007      1008
      1009      1010      1011      1012      1013      1014      1015      1016      1017      1018
      1019      1020      1021      1022      1023      1024      1025      1026      1027      1028
      1029      1030      1031      1032      1033      1034      1035      1036      1037      1038
      1039      1040      1041      1042      1043      1044      1045      1046      1047      1048
      1049      1050      1051      1052      1053      1054      1055      1056      1057      1058
      1059      1060      1061      1062      1063      1064      1065      1066      1067      1068
      1069      1070      1071      1072      1073      1074      1075      1076      1077      1078
      1079      1080      1081      1082      1083      1084      1085      1086      1087      1088
      1089      1090      1091      1092      1093      1094      1095      1096      1097      1098
      1099      1100      1101      1102      1103      1104      1105      1106      1107      1108
      1109      1110      1111      1112      1113      1114      1115      1116      1117      1118
# ... 40 like lines cut
#---1----|----2----|----3----|----4----|----5----|----6----|----7----|----8----|----9----|---10----|
#-  9. TIME HISTORIES:
#---1----|----2----|----3----|----4----|----5----|----6----|----7----|----8----|----9----|---10----|
/TH/QUAD/3
BAR2V21D00_th_2Dsolid
#     var1      var2      var3      var4      var5      var6      var7      var8      var9     var10
DEF       
#     Elid                                                      Elname
       954          Cuivre_Loi49                                                                    
       964          Cuivre_Loi49                                                                    
       974          Cuivre_Loi49                                                                    
       985          Cuivre_Loi49                                                                    
       997          Cuivre_Loi49                                                                    
       998          Cuivre_Loi49                                                                    
      1000          Cuivre_Loi49                                                                    
      1033          BAR2V21D00_th_2Dsolid_group_2                                                   
      1059          BAR2V21D00_th_2Dsolid_group_2                                                   
      1061          BAR2V21D00_th_2Dsolid_group_2                                                   
      1065          BAR2V21D00_th_2Dsolid_group_2                                                   
      1078          BAR2V21D00_th_2Dsolid_group_2                                                   
      1089          BAR2V21D00_th_2Dsolid_group_2                                                   
      1125          BAR2V21D00_th_2Dsolid_group_2                                                   
#---1----|----2----|----3----|----4----|----5----|----6----|----7----|----8----|----9----|---10----|
/END
#---1----|----2----|----3----|----4----|----5----|----6----|----7----|----8----|----9----|---10----|
