#RADIOSS STARTER
# Copyright (C) 2023 Altair Engineering Inc. ("Holder")
# Model is licensed by Holder under CC BY-NC 4.0
# (https://creativecommons.org/licenses/by-nc/4.0/legalcode).
# Copyright (C) 2022 Altair Engineering Inc. ("Holder")
# Model is licensed by Holder under CC BY-NC 4.0
# (https://creativecommons.org/licenses/by-nc/4.0/legalcode).
#--------------------------------------------------------------------------------------------------|
#- RADIOSS DECK WRITTEN BY HyperCrash
#HyperCrash 11.0 (64 bits) 
#Fri Apr  6 14:53:26 2012
#-
#-
#- DATE	Fri Apr  6 14:53:26 2012
#--------------------------------------------------------------------------------------------------|
#---1----|----2----|----3----|----4----|----5----|----6----|----7----|----8----|----9----|---10----|
/BEGIN
FOAM_V10                                                                        
       100         0
                  kg                  mm                  ms
                  kg                  mm                  ms
#---1----|----2----|----3----|----4----|----5----|----6----|----7----|----8----|----9----|---10----|
#-  1. CONTROL CARDS:
#---1----|----2----|----3----|----4----|----5----|----6----|----7----|----8----|----9----|---10----|
/TITLE
  FIXED VELOCITY + 2 INTERFACES + LAW 33
/SPMD
#   DOMDEC      SPMD              DECMOT
         0         4                   0
/IOFLAG
#     IPRI     IRTYP     IGTYP     IOUTP    IOUTYY   IROOTYY                                 IRTYP_R
         0         0         0         0         0         0                                       0
/ANALY
#    N2D3D     INTEG   IPARITH      ISUB
         0         0         0         0
/DEF_SOLID
#  I_SOLID    ISMSTR             ISTRAIN                                  IFRAME
         0         0                   0                                       0
/DEF_SHELL
#   ISHELL    ISMSTR    ITHICK     IPLAS   ISTRAIN                        I_SH3N
         0         0         0         0         0                             1
/SHFRA/V4
#---1----|----2----|----3----|----4----|----5----|----6----|----7----|----8----|----9----|---10----|
#-  2. MATERIALS:
#---1----|----2----|----3----|----4----|----5----|----6----|----7----|----8----|----9----|---10----|
/MAT/FOAM_PLAS/1
FOAM LAW 33
#        Init. dens.          Ref. dens.
             4.33E-7                   0
#                  E        Ka        If              Fscale
                 .35         0         0                   1
#                 P0                 Phi             Gamma_0
                1E-4                  .1                   0
#                  A                   B                   C
            -1.77E-4             6.77E-4               -3.34
#---1----|----2----|----3----|----4----|----5----|----6----|----7----|----8----|----9----|---10----|
/MAT/ELAST/2
REFERENCE FRAME
#        Init. dens.          Ref. dens.
        7.8000002E-7                   0
#                  E                  nu
                   1          .300000001
#---1----|----2----|----3----|----4----|----5----|----6----|----7----|----8----|----9----|---10----|
#-  3. NODES:
#---1----|----2----|----3----|----4----|----5----|----6----|----7----|----8----|----9----|---10----|
/NODE
         1          21.2129993          21.2129993                   0
         2          19.4769993          22.8040009                   0
         3          20.1089993          20.1089993                   0
         4          22.8050003          19.4759998                   0
         5          21.2129993          21.2129993          2.70000005
         6          19.4769993          22.8040009          2.70000005
         7          20.1089993          20.1089993          2.70000005
         8          22.8050003          19.4759998          2.70000005
         9          21.2150002          17.8959999                   0
        10          24.2560005          17.6219997                   0
        11          21.2150002          17.8959999          2.70000005
        12          24.2560005          17.6219997          2.70000005
        13          22.3880005              15.776                   0
        14              25.559          15.6619997                   0
        15          22.3880005              15.776          2.70000005
        16              25.559          15.6619997          2.70000005
        17          23.4200001          13.5620003                   0
        18          26.7059994          13.6070004                   0
        19          23.4200001          13.5620003          2.70000005
        20          26.7059994          13.6070004          2.70000005
# ... 1321 like lines cut
#---1----|----2----|----3----|----4----|----5----|----6----|----7----|----8----|----9----|---10----|
#-  4. BOUNDARY CONDITIONS:
#---1----|----2----|----3----|----4----|----5----|----6----|----7----|----8----|----9----|---10----|
/BCS/1
FOAM2D00_bcs1_100_011
#   trarot   Skew_id   Gnod_id
   100 011         0         2
/GRNOD/NODE/2
FOAM2D00_bcs1_100_011
       221       222       223       224       225       226       227       228       229       230
       231       232       233       234       235       236       237       238       239       240
       353       354       355       356       357       358       359       360       361       362
       474       475       476       477       478       479       480       481       482       483
       595       596       597       598       599       600       601       602       603       604
       716       717       718       719       720       721       722       723       724       725
       837       838       839       840       841       842       843       844       845       846
       958       959       960       961       962       963       964       965       966       967
      1079      1080      1081      1082      1083      1084      1085      1086      1087      1088
      1200      1201      1202      1203      1204      1205      1206      1207      1208      1209
      1321      1322      1323      1324      1325      1326      1327      1328      1329      1330
#---1----|----2----|----3----|----4----|----5----|----6----|----7----|----8----|----9----|---10----|
/BCS/2
FOAM2D00_bcs2_010_101
#   trarot   Skew_id   Gnod_id
   010 101         0         3
/GRNOD/NODE/3
FOAM2D00_bcs2_010_101
        41        42        43        44        65        66        87        88       109       110
       131       132       153       154       175       176       197       198       219       220
       263       264       275       286       297       308       319       330       341       352
       384       385       396       407       418       429       440       451       462       473
       505       506       517       528       539       550       561       572       583       594
       626       627       638       649       660       671       682       693       704       715
       747       748       759       770       781       792       803       814       825       836
       868       869       880       891       902       913       924       935       946       957
       989       990      1001      1012      1023      1034      1045      1056      1067      1078
      1110      1111      1122      1133      1144      1155      1166      1177      1188      1199
      1231      1232      1243      1254      1265      1276      1287      1298      1309      1320
#---1----|----2----|----3----|----4----|----5----|----6----|----7----|----8----|----9----|---10----|
/BCS/3
FOAM2D00_bcs3_110_111
#   trarot   Skew_id   Gnod_id
   110 111         0         6
/GRNOD/GRNOD/6
NULL
         4         5
/GRNOD/NODE/4
FOAM2D00_bcs3_110_111
       241       242       363       484       605       726       847       968      1089      1210
      1331      1332
/GRNOD/NODE/5
FOAM2D00_rbody_2_master
      1332
#---1----|----2----|----3----|----4----|----5----|----6----|----7----|----8----|----9----|---10----|
/BCS/4
FOAM2D00_bcs4_111_111
#   trarot   Skew_id   Gnod_id
   111 111         0         9
/GRNOD/GRNOD/9
NULL
         7         8
/GRNOD/NODE/7
FOAM2D00_bcs4_111_111
      1341
/GRNOD/NODE/8
FOAM2D00_rbody_1_master
      1341
#---1----|----2----|----3----|----4----|----5----|----6----|----7----|----8----|----9----|---10----|
#-  5. PARTS:
#---1----|----2----|----3----|----4----|----5----|----6----|----7----|----8----|----9----|---10----|
/PART/1
PRESS
         1         2         0
#---1----|----2----|----3----|----4----|----5----|----6----|----7----|----8----|----9----|---10----|
# SHELL elements of /PART/1/PRESS:
#---1----|----2----|----3----|----4----|----5----|----6----|----7----|----8----|----9----|---10----|
/SHELL/1
      1001      1333      1334      1335      1336                                                 0
      1002      1337      1338      1339      1340                                                 0
#---1----|----2----|----3----|----4----|----5----|----6----|----7----|----8----|----9----|---10----|
/PART/3
FOAM LAW 33
         3         1         0
#---1----|----2----|----3----|----4----|----5----|----6----|----7----|----8----|----9----|---10----|
# BRICK elements of /PART/3/FOAM LAW 33:
#---1----|----2----|----3----|----4----|----5----|----6----|----7----|----8----|----9----|---10----|
/BRICK/3
         1         2         3         4         4         6         7         8         8
         2         4         3         9        10         8         7        11        12
         3        10         9        13        14        12        11        15        16
         4        14        13        17        18        16        15        19        20
         5        18        17        21        22        20        19        23        24
         6        22        21        25        26        24        23        27        28
         7        26        25        29        30        28        27        31        32
         8        30        29        33        34        32        31        35        36
         9        34        33        37        38        36        35        39        40
        10        38        37        41        42        40        39        43        44
        11         2        45        46         3         6        47        48         7
        12         3        46        49         9         7        48        50        11
        13         9        49        51        13        11        50        52        15
        14        13        51        53        17        15        52        54        19
        15        17        53        55        21        19        54        56        23
        16        21        55        57        25        23        56        58        27
        17        25        57        59        29        27        58        60        31
        18        29        59        61        33        31        60        62        35
        19        33        61        63        37        35        62        64        39
        20        37        63        65        41        39        64        66        43
# ... 980 like lines cut
#---1----|----2----|----3----|----4----|----5----|----6----|----7----|----8----|----9----|---10----|
#-  6. GEOMETRICAL SETS:
#---1----|----2----|----3----|----4----|----5----|----6----|----7----|----8----|----9----|---10----|
/PROP/SHELL/1
PRESS
#   Ishell    Ismstr     Ish3n
         0         0         0
#                 hm                  hf                  hr                  dm                  dn
                   0                   0                   0                   0                   0
#        N   Istrain               Thick              Ashear              Ithick     Iplas
         0         0                  .1                   0                   0         0
#---1----|----2----|----3----|----4----|----5----|----6----|----7----|----8----|----9----|---10----|
/PROP/SOLID/3
FOAM LAW 33
#   Isolid    Ismstr               Icpre               Inpts      Irot    Iframe                  dn
         1         0                   0                   0         0         2                   0
#                q_a                 q_b                   h
                   0                   0                   0
#             dt_min
                   0
#---1----|----2----|----3----|----4----|----5----|----6----|----7----|----8----|----9----|---10----|
#-  7. FUNCTIONS:
#---1----|----2----|----3----|----4----|----5----|----6----|----7----|----8----|----9----|---10----|
/FUNCT/2
function_2
#                  X                   Y
                   0                   0                                                            
                 .02                  .1                                                            
                .035                  .4                                                            
                 .05                   1                                                            
                 .06                 1.6                                                            
                  .1                 4.7                                                            
                 .17                   6                                                            
                 .21                 5.9                                                            
                 .23                 6.1                                                            
                 .35                 6.2                                                            
                 .47                 5.9                                                            
                  .5                 5.1                                                            
                 .56                 1.7                                                            
                  .6                 1.3                                                            
                 .61                   1                                                            
                   1                   0                                                            
#---1----|----2----|----3----|----4----|----5----|----6----|----7----|----8----|----9----|---10----|
/FUNCT/5
function_5
#                  X                   Y
                   0             -.00981                                                            
                  10             -.00981                                                            
#---1----|----2----|----3----|----4----|----5----|----6----|----7----|----8----|----9----|---10----|
#-  8. GRAVITIES:
#---1----|----2----|----3----|----4----|----5----|----6----|----7----|----8----|----9----|---10----|
/GRAV/1
Gravity in Z direction
#   Ifunct       DIR     Iskew   Isensor   Gnod_id                       Scale_x             Scale_y
         5         Z         0         0        10                             1                   1
/GRNOD/NODE/10
Gravity in Z direction
         1         2         3         4         5         6         7         8         9        10
        11        12        13        14        15        16        17        18        19        20
        21        22        23        24        25        26        27        28        29        30
        31        32        33        34        35        36        37        38        39        40
        41        42        43        44        45        46        47        48        49        50
        51        52        53        54        55        56        57        58        59        60
        61        62        63        64        65        66        67        68        69        70
        71        72        73        74        75        76        77        78        79        80
        81        82        83        84        85        86        87        88        89        90
        91        92        93        94        95        96        97        98        99       100
       101       102       103       104       105       106       107       108       109       110
       111       112       113       114       115       116       117       118       119       120
       121       122       123       124       125       126       127       128       129       130
       131       132       133       134       135       136       137       138       139       140
       141       142       143       144       145       146       147       148       149       150
       151       152       153       154       155       156       157       158       159       160
       161       162       163       164       165       166       167       168       169       170
       171       172       173       174       175       176       177       178       179       180
       181       182       183       184       185       186       187       188       189       190
       191       192       193       194       195       196       197       198       199       200
# ... 115 like lines cut
#---1----|----2----|----3----|----4----|----5----|----6----|----7----|----8----|----9----|---10----|
#-  9. INTERFACES:
#---1----|----2----|----3----|----4----|----5----|----6----|----7----|----8----|----9----|---10----|
/INTER/TYPE7/1
FOAM429D00_interface_1
#  Slav_id   Mast_id      Istf      Ithe      Igap     Multi      Ibag      Idel     Icurv      Iadm
        11        13         0         0         0         0         0         0         0         0
#          GAP_SCALE             GAP_MAX
                   0                   0
#              STMIN               STMAX
                   0                   0
#              STFAC                FRIC             GAP_MIN              Tstart               Tstop
                   1                   0            .0999999                   0                   0
#     I_BC                        INACTI               VIS_S               VIS_F              BUMULT
       000                             0                   0                   0                   0
#    Ifric    Ifiltr               Xfreq     Iform
         0         0                   0         0
/GRNOD/NODE/11
FOAM429D00_interface_1_surf_1
      1212      1213      1214      1215      1216      1217      1218      1219      1220      1221
      1222      1223      1224      1225      1226      1227      1228      1229      1230      1231
      1232      1233      1234      1235      1236      1237      1238      1239      1240      1241
      1242      1243      1244      1245      1246      1247      1248      1249      1250      1251
      1252      1253      1254      1255      1256      1257      1258      1259      1260      1261
      1262      1263      1264      1265      1266      1267      1268      1269      1270      1271
      1272      1273      1274      1275      1276      1277      1278      1279      1280      1281
      1282      1283      1284      1285      1286      1287      1288      1289      1290      1291
      1292      1293      1294      1295      1296      1297      1298      1299      1300      1301
      1302      1303      1304      1305      1306      1307      1308      1309      1310      1311
      1312      1313      1314      1315      1316      1317      1318      1319      1320      1321
      1322      1323      1324      1325      1326      1327      1328      1329      1330      1331
/SURF/GRSHEL/13
FOAM429D00_interface_1_surf_2
        12
/GRSHEL/SHEL/12
FOAM429D00_interface_1_surf_2
      1002
#---1----|----2----|----3----|----4----|----5----|----6----|----7----|----8----|----9----|---10----|
/INTER/TYPE7/2
FOAM429D00_interface_2
#  Slav_id   Mast_id      Istf      Ithe      Igap     Multi      Ibag      Idel     Icurv      Iadm
        14        16         0         0         0         0         0         0         0         0
#          GAP_SCALE             GAP_MAX
                   0                   0
#              STMIN               STMAX
                   0                   0
#              STFAC                FRIC             GAP_MIN              Tstart               Tstop
                   1                   0            .0999999                   0                   0
#     I_BC                        INACTI               VIS_S               VIS_F              BUMULT
       000                             0                   0                   0                   0
#    Ifric    Ifiltr               Xfreq     Iform
         0         0                   0         0
/GRNOD/NODE/14
FOAM429D00_interface_2_surf_1
         1         2         3         4         9        10        13        14        17        18
        21        22        25        26        29        30        33        34        37        38
        41        42        45        46        49        51        53        55        57        59
        61        63        65        67        68        71        73        75        77        79
        81        83        85        87        89        90        93        95        97        99
       101       103       105       107       109       111       112       115       117       119
       121       123       125       127       129       131       133       134       137       139
       141       143       145       147       149       151       153       155       156       159
       161       163       165       167       169       171       173       175       177       178
       181       183       185       187       189       191       193       195       197       199
       200       203       205       207       209       211       213       215       217       219
       221       222       225       227       229       231       233       235       237       239
       241
/SURF/GRSHEL/16
FOAM429D00_interface_2_surf_2
        15
/GRSHEL/SHEL/15
FOAM429D00_interface_2_surf_2
      1001
#---1----|----2----|----3----|----4----|----5----|----6----|----7----|----8----|----9----|---10----|
#- 10. RIGID BODIES:
#---1----|----2----|----3----|----4----|----5----|----6----|----7----|----8----|----9----|---10----|
/RBODY/1332
FOAM2D00_rbody_2
#     RBID     ISENS     NSKEW    ISPHER                MASS   Gnod_id     IKREM      ICOG   Surf_id
      1332         0         0         0                   0        18         0         0         0
#                Jxx                 Jyy                 Jzz
                   0                   0                   0
#                Jxy                 Jyz                 Jxz
                   0                   0                   0
/GRNOD/NODE/18
FOAM2D00_rbody_2_slave
      1337      1338      1339      1340
#---1----|----2----|----3----|----4----|----5----|----6----|----7----|----8----|----9----|---10----|
/RBODY/1341
FOAM2D00_rbody_1
#     RBID     ISENS     NSKEW    ISPHER                MASS   Gnod_id     IKREM      ICOG   Surf_id
      1341         0         0         0                   0        17         0         0         0
#                Jxx                 Jyy                 Jzz
                   0                   0                   0
#                Jxy                 Jyz                 Jxz
                   0                   0                   0
/GRNOD/NODE/17
FOAM2D00_rbody_1_slave
      1333      1334      1335      1336
#---1----|----2----|----3----|----4----|----5----|----6----|----7----|----8----|----9----|---10----|
#- 11. IMPOSED VELOCITIES:
#---1----|----2----|----3----|----4----|----5----|----6----|----7----|----8----|----9----|---10----|
/IMPVEL/1
FOAM429D00_fixvel_1
#   Ifunct       DIR     Iskew   Isensor   Gnod_id    Iframe
         2         Z         0         0        20         0
#            Scale_x             Scale_y              Tstart               Tstop
                   1                  -1                   0                   0
/GRNOD/GRNOD/20
NULL
         5        19
/GRNOD/NODE/19
FOAM429D00_fixvel_1
      1332
#---1----|----2----|----3----|----4----|----5----|----6----|----7----|----8----|----9----|---10----|
#- 12. TIME HISTORIES:
#---1----|----2----|----3----|----4----|----5----|----6----|----7----|----8----|----9----|---10----|
/TH/PART/1
Part selection
#     var1      var2      var3      var4      var5      var6      var7      var8      var9     var10
DEF       
#     Obj1      Obj2      Obj3      Obj4      Obj5      Obj6      Obj7      Obj8      Obj9     Obj10
         3         1
#---1----|----2----|----3----|----4----|----5----|----6----|----7----|----8----|----9----|---10----|
/TH/NODE/2
FOAM429D00_th_nodes
#     var1      var2      var3      var4      var5      var6      var7      var8      var9     var10
DEF       
#    NODid     Iskew                                           NODname
       221         0                                                                                
       223         0                                                                                
       241         0                                                                                
       242         0                                                                                
       353         0                                                                                
       363         0                                                                                
       474         0                                                                                
       484         0                                                                                
       595         0                                                                                
       605         0                                                                                
       716         0                                                                                
       726         0                                                                                
       837         0                                                                                
       847         0                                                                                
       958         0                                                                                
       968         0                                                                                
      1079         0                                                                                
      1089         0                                                                                
      1200         0                                                                                
      1210         0                                                                                
# ... 5 like lines cut
#---1----|----2----|----3----|----4----|----5----|----6----|----7----|----8----|----9----|---10----|
/TH/BRIC/3
FOAM429D00_th_3Dsolid
#     var1      var2      var3      var4      var5      var6      var7      var8      var9     var10
DEF       
#    NODid                                                     NODname
        91                                                                                          
       100                                                                                          
       191                                                                                          
       200                                                                                          
       291                                                                                          
       300                                                                                          
       391                                                                                          
       400                                                                                          
       491                                                                                          
       500                                                                                          
       591                                                                                          
       600                                                                                          
       691                                                                                          
       700                                                                                          
       791                                                                                          
       800                                                                                          
       891                                                                                          
       900                                                                                          
       991                                                                                          
      1000                                                                                          
#---1----|----2----|----3----|----4----|----5----|----6----|----7----|----8----|----9----|---10----|
/TH/RBODY/4
Rigid bodies
#     var1      var2      var3      var4      var5      var6      var7      var8      var9     var10
DEF       
#     Obj1      Obj2      Obj3      Obj4      Obj5      Obj6      Obj7      Obj8      Obj9     Obj10
      1332      1341
#---1----|----2----|----3----|----4----|----5----|----6----|----7----|----8----|----9----|---10----|
#include qadiags.inc
/END
#---1----|----2----|----3----|----4----|----5----|----6----|----7----|----8----|----9----|---10----|
