#RADIOSS STARTER
# Copyright (C) 2024 Altair Engineering Inc. ("Holder")
# Model is licensed by Holder under CC BY-NC 4.0
# (https://creativecommons.org/licenses/by-nc/4.0/legalcode).
# Copyright (C) 2022 Altair Engineering Inc. ("Holder")
# Model is licensed by Holder under CC BY-NC 4.0
# (https://creativecommons.org/licenses/by-nc/4.0/legalcode).
#--------------------------------------------------------------------------------------------------|
#- RADIOSS DECK WRITTEN BY HyperCrash
#HyperCrash 2022.3 
#Thu Oct 12 16:14:41 2023
#-
#-
#- DATE	Thu Oct 12 16:14:41 2023
#--------------------------------------------------------------------------------------------------|
#---1----|----2----|----3----|----4----|----5----|----6----|----7----|----8----|----9----|---10----|
/BEGIN
model_00                                                                        
      2022         0
                  kg                  mm                  ms
                  kg                  mm                  ms
#---1----|----2----|----3----|----4----|----5----|----6----|----7----|----8----|----9----|---10----|
#-  1. CONTROL CARDS:
#---1----|----2----|----3----|----4----|----5----|----6----|----7----|----8----|----9----|---10----|
/TITLE

#---1----|----2----|----3----|----4----|----5----|----6----|----7----|----8----|----9----|---10----|
#-  2. MATERIALS:
#---1----|----2----|----3----|----4----|----5----|----6----|----7----|----8----|----9----|---10----|
/MAT/PLAS_JOHNS/1
Aluminum
#              RHO_I
              2.7E-6                   0
#                  E                  Nu     Iflag
                  70                   0         0
#                  a                   b                   n           EPS_p_max            SIG_max0
                 .15                  .2                  .6                   0                   0
#                  c           EPS_DOT_0       ICC   Fsmooth               F_cut               Chard
                   0                   0         0         0                   0                   0
#                  m              T_melt              rhoC_p                 T_r
                   0                   0                   0                   0
/FAIL/JOHNSON/1
#                 D1                  D2                  D3                  D4                  D5
                  .1                  .1                 -.1                   0                   0
#              EPS_0  Ifail_sh  Ifail_so                                    Dadv               Ixfem
                   0         0         0                                       0                   0
#---1----|----2----|----3----|----4----|----5----|----6----|----7----|----8----|----9----|---10----|
/MAT/PLAS_JOHNS/4
STEEL
#              RHO_I
              7.9E-6                   0
#                  E                  Nu     Iflag
                 210                  .3         0
#                  a                   b                   n           EPS_p_max            SIG_max0
                  .2                 .45                  .5                1E30                .425
#                  c           EPS_DOT_0       ICC   Fsmooth               F_cut               Chard
                   0                   0         0         0                   0                   0
#                  m              T_melt              rhoC_p                 T_r
                   0                   0                   0                   0
#---1----|----2----|----3----|----4----|----5----|----6----|----7----|----8----|----9----|---10----|
#-  3. NODES:
#---1----|----2----|----3----|----4----|----5----|----6----|----7----|----8----|----9----|---10----|
/NODE
         5                   0                   0                   0
         6                   5                   0                   0
         7                  10                   0                   0
         8                  15                   0                   0
         9                  20                   0                   0
        10                  25                   0                   0
        11                  30                   0                   0
        12                  35                   0                   0
        13                  40                   0                   0
        14                  45                   0                   0
        15                  50                   0                   0
        16                  50                   0                   5
        17                  50                   0                  10
        18                  50                   0                  15
        19                  50                   0                  20
        20                  45                   0                  20
        21                  40                   0                  20
        22                  35                   0                  20
        23                  30                   0                  20
        24                  25                   0                  20
# ... 389 like lines cut
#---1----|----2----|----3----|----4----|----5----|----6----|----7----|----8----|----9----|---10----|
#-  4. BOUNDARY CONDITIONS:
#---1----|----2----|----3----|----4----|----5----|----6----|----7----|----8----|----9----|---10----|
/BCS/1
RBODIES
#  Tra rot   skew_ID  grnod_ID
   011 111         0         4
/GRNOD/NODE/4
RBODIES
       170
#---1----|----2----|----3----|----4----|----5----|----6----|----7----|----8----|----9----|---10----|
/BCS/2
Anchorage
#  Tra rot   skew_ID  grnod_ID
   111 111         0        19
/GRNOD/PART/19
BCS_group_19_of_PART
         5
#---1----|----2----|----3----|----4----|----5----|----6----|----7----|----8----|----9----|---10----|
#-  5. PARTS:
#---1----|----2----|----3----|----4----|----5----|----6----|----7----|----8----|----9----|---10----|
/PART/1
Solid
         1         1         0
#---1----|----2----|----3----|----4----|----5----|----6----|----7----|----8----|----9----|---10----|
# BRICK elements of /PART/1/Solid:
#---1----|----2----|----3----|----4----|----5----|----6----|----7----|----8----|----9----|---10----|
/BRICK/1
        41        49        12        11        46        60        61        62        63
        43        18        17        58        59        68        69        70        71
        45        39        43        47        42        76        77        78        79
        47        48        46        44        45        84        63        85        86
        49        22        56        53        23        90        91        92        93
        51        59        58        55        57        71        70        98        99
        53        57        55        52        56        99        98       102        91
        55        47        25        24        50        78       104       105       106
        57        58        54        51        55        70       110       111        98
        59        26        43        41        27       114        77       115       116
        61        51        13        12        49       111       120        61        60
        63        32        31        35        33       122       123       124       125
        65        43        26        25        47        77       114       104        78
        67        41        36        35        38       115       130       124       131
        69        30        29        28        38       134       135       136       131
        71        43        39        36        41        77        76       130       115
        73        21        57        56        22       140        99        91        90
        75        52        49        46        48       102        60        63        84
        77        53        48        45        50        92        84        86       106
        79        23        53        50        24        93        92       106       105
# ... 20 like lines cut
#---1----|----2----|----3----|----4----|----5----|----6----|----7----|----8----|----9----|---10----|
/PART/2
Solid
         1         1         0
#---1----|----2----|----3----|----4----|----5----|----6----|----7----|----8----|----9----|---10----|
# BRICK elements of /PART/2/Solid:
#---1----|----2----|----3----|----4----|----5----|----6----|----7----|----8----|----9----|---10----|
/BRICK/2
       120        60        61        62        63       381       344       343       378
       122        68        69        70        71       350       349       390       391
       124        76        77        78        79       371       375       379       374
       126        84        63        85        86       380       378       376       377
       128        90        91        92        93       354       388       385       355
       130        71        70        98        99       391       390       387       389
       132        99        98       102        91       389       387       384       388
       134        78       104       105       106       379       357       356       382
       136        70       110       111        98       390       386       383       387
       138       114        77       115       116       358       375       373       359
       140       111       120        61        60       383       345       344       381
       142       122       123       124       125       364       363       367       365
       144        77       114       104        78       375       358       357       379
       146       115       130       124       131       373       368       367       370
       148       134       135       136       131       362       361       360       370
       150        77        76       130       115       375       371       368       373
       152       140        99        91        90       353       389       388       354
       154       102        60        63        84       384       381       378       380
       156        92        84        86       106       385       380       377       382
       158        93        92       106       105       355       385       382       356
# ... 20 like lines cut
#---1----|----2----|----3----|----4----|----5----|----6----|----7----|----8----|----9----|---10----|
/PART/3
Solid
         1         1         0
#---1----|----2----|----3----|----4----|----5----|----6----|----7----|----8----|----9----|---10----|
# BRICK elements of /PART/3/Solid:
#---1----|----2----|----3----|----4----|----5----|----6----|----7----|----8----|----9----|---10----|
/BRICK/3
       199       381       344       343       378       392       393       394       395
       201       350       349       390       391       400       401       402       403
       203       371       375       379       374       408       409       410       411
       205       380       378       376       377       416       395       417       418
       207       354       388       385       355       422       423       424       425
       209       391       390       387       389       403       402       430       431
       211       389       387       384       388       431       430       434       423
       213       379       357       356       382       410       436       437       438
       215       390       386       383       387       402       442       443       430
       217       358       375       373       359       446       409       447       448
       219       383       345       344       381       443       452       393       392
       221       364       363       367       365       454       455       456       457
       223       375       358       357       379       409       446       436       410
       225       373       368       367       370       447       462       456       463
       227       362       361       360       370       466       467       468       463
       229       375       371       368       373       409       408       462       447
       231       353       389       388       354       472       431       423       422
       233       384       381       378       380       434       392       395       416
       235       385       380       377       382       424       416       418       438
       237       355       385       382       356       425       424       438       437
# ... 20 like lines cut
#---1----|----2----|----3----|----4----|----5----|----6----|----7----|----8----|----9----|---10----|
/PART/5
Shell
         4         4         0
#---1----|----2----|----3----|----4----|----5----|----6----|----7----|----8----|----9----|---10----|
# SHELL elements of /PART/5/Shell:
#---1----|----2----|----3----|----4----|----5----|----6----|----7----|----8----|----9----|---10----|
/SHELL/5
         1       503       509       521       520
         2       509       510       522       521
         3       510       511       523       522
         4       511       512       524       523
         5       512       513       525       524
         6       513       514       526       525
         7       514       515       527       526
         8       515       516       528       527
         9       516       517       529       528
        10       517       518       530       529
        11       518       519       531       530
        12       519       507       532       531
        13       520       521       534       533
        14       521       522       535       534
        15       522       523       536       535
        16       523       524       537       536
        17       524       525       538       537
        18       525       526       539       538
        19       526       527       540       539
        20       527       528       541       540
# ... 160 like lines cut
#---1----|----2----|----3----|----4----|----5----|----6----|----7----|----8----|----9----|---10----|
#-  6. GEOMETRICAL SETS:
#---1----|----2----|----3----|----4----|----5----|----6----|----7----|----8----|----9----|---10----|
/PROP/SOLID/1
solid
#   Isolid    Ismstr               Icpre  Itetra10     Inpts   Itetra4    Iframe                  dn
        14        -1                  -1         0         0         0        -1                   0
#                q_a                 q_b                   h            LAMBDA_V                MU_V
                   0                   0                   0                   0                   0
#             dt_min
                   0
#---1----|----2----|----3----|----4----|----5----|----6----|----7----|----8----|----9----|---10----|
/PROP/SHELL/4
Shell_1mm
#   Ishell    Ismstr     Ish3n    Idrill                            P_thick_fail
        24         0         0         0                                       0
#                 hm                  hf                  hr                  dm                  dn
                   0                   0                   0                   0                   0
#        N   Istrain               Thick              Ashear              Ithick     Iplas
         5         0                 1.5                   0                   1         1
#---1----|----2----|----3----|----4----|----5----|----6----|----7----|----8----|----9----|---10----|
#-  7. FUNCTIONS:
#---1----|----2----|----3----|----4----|----5----|----6----|----7----|----8----|----9----|---10----|
/FUNCT/1
Imposed motion
#                  X                   Y
                   0                   0
                   1                   1
#---1----|----2----|----3----|----4----|----5----|----6----|----7----|----8----|----9----|---10----|
#-  8. INTERFACES:
#---1----|----2----|----3----|----4----|----5----|----6----|----7----|----8----|----9----|---10----|
/INTER/TYPE25/1
All
# Surf_ID1  Surf_ID2      Istf      Ithe      Igap   Irem_i2                Idel     Iedge
         1         0         5         0         0         0                   1      1000
# grnd_IDS                     Gap_scale          %mesh_size           Gap_max_s           Gap_max_m
         0                             0                   0                   0                   0
#              Stmin               Stmax     Igap0    Ishape          Edge_angle
                   0                   0         1         1                   0
#              Stfac                Fric           Tpressfit              Tstart               Tstop
                   0                  .2                   0                   0                   0
#      IBC               IVIS2    Inacti               ViscS    Ithick                          Pmax
       000                   0         5                   0         0                             0
#    Ifric    Ifiltr               Xfreq             sens_ID                                 fric_ID
         0         0                   0                   0                                       0
/SURF/PART/ALL/1
All
         1         2         3         5
#---1----|----2----|----3----|----4----|----5----|----6----|----7----|----8----|----9----|---10----|
#-  9. RIGID BODIES:
#---1----|----2----|----3----|----4----|----5----|----6----|----7----|----8----|----9----|---10----|
/RBODY/2
End_2
#     RBID     ISENS     NSKEW    ISPHER                MASS   Gnod_id     IKREM      ICOG   Surf_id
       170         0         0         0                   0        18         0         0         0
#                Jxx                 Jyy                 Jzz
                   0                   0                   0
#                Jxy                 Jyz                 Jxz
                   0                   0                   0
#  Ioptoff               Ifail
         0         0         0
/GRNOD/NODE/18
End_2
        14        15        16        17        18        19        20        54        58        59
        68        69        70        71       110       142       146       162       163       168
       346       347       348       349       350       351       352       386       390       391
       400       401       402       403       442       474       478       494       495       500
#---1----|----2----|----3----|----4----|----5----|----6----|----7----|----8----|----9----|---10----|
#- 10. IMPOSED DISPLACEMENTS:
#---1----|----2----|----3----|----4----|----5----|----6----|----7----|----8----|----9----|---10----|
/IMPDISP/2
End_2
#   Ifunct       DIR     Iskew   Isensor   Gnod_id     Frame     Icoor
         1         X         0         0         7         0         0
#            Scale_x             Scale_y              Tstart               Tstop
                  10                 -25                   0                   0
/GRNOD/NODE/7
End_2
       170
#---1----|----2----|----3----|----4----|----5----|----6----|----7----|----8----|----9----|---10----|
#- 11. TIME HISTORIES:
#---1----|----2----|----3----|----4----|----5----|----6----|----7----|----8----|----9----|---10----|
/TH/RBODY/1
TH RBODY
#     var1      var2      var3      var4      var5      var6      var7      var8      var9     var10
DEF       
#     Obj1      Obj2      Obj3      Obj4      Obj5      Obj6      Obj7      Obj8      Obj9     Obj10
         2
#---1----|----2----|----3----|----4----|----5----|----6----|----7----|----8----|----9----|---10----|
/TH/INTER/2
TH INTER
#     var1      var2      var3      var4      var5      var6      var7      var8      var9     var10
DEF       
#     Obj1      Obj2      Obj3      Obj4      Obj5      Obj6      Obj7      Obj8      Obj9     Obj10
         1
#---1----|----2----|----3----|----4----|----5----|----6----|----7----|----8----|----9----|---10----|
/END
#---1----|----2----|----3----|----4----|----5----|----6----|----7----|----8----|----9----|---10----|
