#RADIOSS STARTER
# Copyright (C) 2022 Altair Engineering Inc. ("Holder")
# Model is licensed by Holder under CC BY-NC 4.0
# (https://creativecommons.org/licenses/by-nc/4.0/legalcode).
#--------------------------------------------------------------------------------------------------|
#- RADIOSS DECK WRITTEN BY HyperCrash
#HyperCrash 9.0 SA1 
#Wed Mar 11 16:45:25 2009
#-
#-
#- DATE	Wed Mar 11 16:45:25 2009
#--------------------------------------------------------------------------------------------------|
/BEGIN
tstpeel_25                                                            
        90         0
#---1----|----2----|----3----|----4----|----5----|----6----|----7----|----8----|----9----|---10----|
/UNIT/LENGTH/mm
/UNIT/MASS/Mg
/UNIT/TIME/s
#---1----|----2----|----3----|----4----|----5----|----6----|----7----|----8----|----9----|---10----|
#-  1. CONTROL CARDS:
/AMS

#---1----|----2----|----3----|----4----|----5----|----6----|----7----|----8----|----9----|---10----|
/TITLE
Original
/IOFLAG
#     IPRI     IRTYP     IGTYP     IOUTP    IOUTYY   IROOTYY                                 IRTYP_R
         0         0         0         0         0         0                                       0
/ANALY
#    N2D3D     INTEG   IPARITH      ISUB
         0         0         0         0
/DEF_SOLID
#  B_HOURG   B_SSTRN                                                      Iframe
         0         0                                                           0
/DEF_SHELL
#  S_HOURG   S_SSTRN   S_THICK   S_PLAST    S_STRN                        I_SH3N
         0         0         0         0         0                             0
/RANDOM
#   Random-Noise
                   0
#---1----|----2----|----3----|----4----|----5----|----6----|----7----|----8----|----9----|---10----|
#-  2. MATERIALS:
#---1----|----2----|----3----|----4----|----5----|----6----|----7----|----8----|----9----|---10----|
/MAT/PLAS_JOHNS/1
Steel_001
#        Init. dens.          Ref. dens.
              7.8E-9                   0
#                  E                  Nu
              210000                  .3
#                  a                   b                   n             Eps_max              sigmax
                 270                 350                 .59                   0                   0
#                  c                EPS0       Icc   Fsmooth               F_CUT
                   0                   0         0         0                   0
#                  m              T_melt               rhoCp                 T_i
                   0                   0                   0                   0
#---1----|----2----|----3----|----4----|----5----|----6----|----7----|----8----|----9----|---10----|
#-  3. NODES:
#---1----|----2----|----3----|----4----|----5----|----6----|----7----|----8----|----9----|---10----|
/NODE
       403  -.0500000007000002                 119    1.75499995608108
       404    171.710007000209                 119    1.75499995608108
       405          85.1949997                 100                  38
       406          85.1949997                 138                  38
       407        -.0500000007                 100         1.754999935
       408        -.0500000007                 138         1.754999935
       409          79.4163971                 100         1.754999935
       410          85.1949997                 100          7.56764984
       411          85.1949997                 138          7.56769991
       412          79.4164963                 138         1.754999935
       413          85.1949997    132.571428571429                  38
       414          85.1949997    127.142857142857                  38
       415          85.1949997    121.714285714286                  38
       416          85.1949997    116.285714285714                  38
       417          85.1949997    110.857142857143                  38
       418          85.1949997    105.428571428571                  38
       419          85.1949997                 138        32.927949985
       420          85.1949997    132.571428571429    32.9279487928571
       421          85.1949997    127.142857142857    32.9279476007143
       422          85.1949997    121.714285714286    32.9279464085714
# ... 766 like lines cut
#---1----|----2----|----3----|----4----|----5----|----6----|----7----|----8----|----9----|---10----|
#-  4. BOUNDARY CONDITIONS:
#---1----|----2----|----3----|----4----|----5----|----6----|----7----|----8----|----9----|---10----|
/BCS/5
Top_1
#   trarot   Skew_id   Gnod_id
   111 111         0        17
/GRNOD/NODE/17
Top_1_1
       789
#---1----|----2----|----3----|----4----|----5----|----6----|----7----|----8----|----9----|---10----|
/BCS/6
Top_2
#   trarot   Skew_id   Gnod_id
   011 111         0        18
/GRNOD/NODE/18
Top_2_2
       790
#---1----|----2----|----3----|----4----|----5----|----6----|----7----|----8----|----9----|---10----|
#/BCS/7
#latteral
#   trarot   Skew_id   Gnod_id
#   010 000         0       518
/GRNOD/NODE/518
latteral
      1185      1186      1187      1188      1177      1178      1175      1176
#---1----|----2----|----3----|----4----|----5----|----6----|----7----|----8----|----9----|---10----|
/PART/9
SHELL_5mm_1
         1         1         7
#---1----|----2----|----3----|----4----|----5----|----6----|----7----|----8----|----9----|---10----|
# SHELL elements of /PART/9/SHELL_5mm_1:
#---1----|----2----|----3----|----4----|----5----|----6----|----7----|----8----|----9----|---10----|
/SHELL/9
       645       792       799       806       805                                                 0
       646       799       800       807       806                                                 0
       647       800       801       808       807                                                 0
       648       801       802       809       808                                                 0
       649       802       803       810       809                                                 0
       650       803       804       811       810                                                 0
       651       804       791       812       811                                                 0
       652       805       806       814       813                                                 0
       653       806       807       815       814                                                 0
       654       807       808       816       815                                                 0
       655       808       809       817       816                                                 0
       656       809       810       818       817                                                 0
       657       810       811       819       818                                                 0
       658       811       812       820       819                                                 0
       659       813       814       822       821                                                 0
       660       814       815       823       822                                                 0
       661       815       816       824       823                                                 0
       662       816       817       825       824                                                 0
       663       817       818       826       825                                                 0
       664       818       819       827       826                                                 0
# ... 134 like lines cut
#---1----|----2----|----3----|----4----|----5----|----6----|----7----|----8----|----9----|---10----|
/PART/10
SHELL_5mm_2
         1         1         7
#---1----|----2----|----3----|----4----|----5----|----6----|----7----|----8----|----9----|---10----|
# SHELL elements of /PART/10/SHELL_5mm_2:
#---1----|----2----|----3----|----4----|----5----|----6----|----7----|----8----|----9----|---10----|
/SHELL/10
       806       984       991       998       997                                                 0
       807       991       992       999       998                                                 0
       808       992       993      1000       999                                                 0
       809       993       994      1001      1000                                                 0
       810       994       995      1002      1001                                                 0
       811       995       996      1003      1002                                                 0
       812       996       983      1004      1003                                                 0
       820      1005      1006      1014      1013                                                 0
       821      1006      1007      1015      1014                                                 0
       822      1007      1008      1016      1015                                                 0
       823      1008      1009      1017      1016                                                 0
       824      1009      1010      1018      1017                                                 0
       825      1010      1011      1019      1018                                                 0
       826      1011      1012      1020      1019                                                 0
       827      1013      1014      1022      1021                                                 0
       828      1014      1015      1023      1022                                                 0
       829      1015      1016      1024      1023                                                 0
       830      1016      1017      1025      1024                                                 0
       831      1017      1018      1026      1025                                                 0
       832      1018      1019      1027      1026                                                 0
# ... 134 like lines cut
#---1----|----2----|----3----|----4----|----5----|----6----|----7----|----8----|----9----|---10----|
/PART/11
E_SPOTWELD_1
         2         0         7
#---1----|----2----|----3----|----4----|----5----|----6----|----7----|----8----|----9----|---10----|
/PART/12
SHELL_5mm_1
         1         1         7
/SHELL/12
       673       829       830       838       837                                                 0
       674       830       831       839       838                                                 0
       675       831       832       840       839                                                 0
       676       832       833       841       840                                                 0
       677       833       834       842       841                                                 0
       678       834       835       843       842                                                 0
       679       835       836       844       843                                                 0
       813       997       998      1006      1005                                                 0
       814       998       999      1007      1006                                                 0
       815       999      1000      1008      1007                                                 0
       816      1000      1001      1009      1008                                                 0
       817      1001      1002      1010      1009                                                 0
       818      1002      1003      1011      1010                                                 0
       819      1003      1004      1012      1011                                                 0
#---1----|----2----|----3----|----4----|----5----|----6----|----7----|----8----|----9----|---10----|
#-  6. SUBSETS:
#---1----|----2----|----3----|----4----|----5----|----6----|----7----|----8----|----9----|---10----|
/SUBSET/5
Common node
#---1----|----2----|----3----|----4----|----5----|----6----|----7----|----8----|----9----|---10----|
/SUBSET/7
Tied contact shifted
#---1----|----2----|----3----|----4----|----5----|----6----|----7----|----8----|----9----|---10----|
#-  7. GEOMETRICAL SETS:
#---1----|----2----|----3----|----4----|----5----|----6----|----7----|----8----|----9----|---10----|
/PROP/SHELL/1
Shell_5mm
#   Ishell    Ismstr     Ish3n
        24         0         0
#                 hm                  hf                  hr                  dm                  dn
                   0                   0                   0                   0                   0
#        N   Istrain               Thick              Ashear              Ithick     Iplas
         5         0                1.17                   0                   1         1
#---1----|----2----|----3----|----4----|----5----|----6----|----7----|----8----|----9----|---10----|
/PROP/SPR_BEAM/2
SPOTWELD_WITH_RUPTURE
#               Mass             Inertia     Iskew   Isensor    Isflag     Ifail     Ileng    Ifail2
                2E-7                2E-6         0         0         0         0         0         0
#                  K                   C                   A                   B                   D
              100000                   0                   0                   0                   0
#       N1         H        N2        N3                               delta_min           delta_max
         2         1         0         0                                      .5                  .5
#                  F                   E
                   0                   0
#                  K                   C                   A                   B                   D
              500000                   0                   0                   0                   0
#       N1         H        N2        N3                               delta_min           delta_max
         3         1         0         0                                       0                   0
#                  F                   E
                   0                   0
#                  K                   C                   A                   B                   D
              500000                   0                   0                   0                   0
#       N1         H        N2        N3                               delta_min           delta_max
         3         1         0         0                                       0                   0
#                  F                   E
                   0                   0
#                  K                   C                   A                   B                   D
             5000000                   0                   0                   0                   0
#       N1         H        N2        N3                               theta_min           theta_max
         0         1         0         0                                       0                   0
#                  F                   E
                   0                   0
#                  K                   C                   A                   B                   D
             5000000                   0                   0                   0                   0
#       N1         H        N2        N3                               theta_min           theta_max
         0         1         0         0                                       0                   0
#                  F                   E
                   0                   0
#                  K                   C                   A                   B                   D
             5000000                   0                   0                   0                   0
#       N1         H        N2        N3                               theta_min           theta_max
         0         1         0         0                                       0                   0
#                  F                   E
                   0                   0
#                 V0              Omega0
                   0                   0
#                  C                   n               alpha                beta
                   0                   0                   0                   0
                   0                   0                   0                   0
                   0                   0                   0                   0
                   0                   0                   0                   0
                   0                   0                   0                   0
                   0                   0                   0                   0
#---1----|----2----|----3----|----4----|----5----|----6----|----7----|----8----|----9----|---10----|
#-  8. FUNCTIONS:
#---1----|----2----|----3----|----4----|----5----|----6----|----7----|----8----|----9----|---10----|
/FUNCT/1
Top_2
#                  X                   Y
                   0                   0                                                            
                  .1                 100                                                            
#---1----|----2----|----3----|----4----|----5----|----6----|----7----|----8----|----9----|---10----|
/FUNCT/2
spotweld tensile function
#                  X                   Y
                -250               -2000                                                            
                -.25               -2000                                                            
                   0                   0                                                            
                 .25                2000                                                            
                 250                2000                                                            
#---1----|----2----|----3----|----4----|----5----|----6----|----7----|----8----|----9----|---10----|
/FUNCT/3
Spotweld shear function
#                  X                   Y
                -250               -6000                                                            
                -.25               -6000                                                            
                   0                   0                                                            
                 .25                6000                                                            
                 250                6000                                                            
#---1----|----2----|----3----|----4----|----5----|----6----|----7----|----8----|----9----|---10----|
#-  9. INTERFACES:
#---1----|----2----|----3----|----4----|----5----|----6----|----7----|----8----|----9----|---10----|
/INTER/TYPE7/5
All
#  Slav_id   Mast_id      Istf      Ithe      Igap     Multi      Ibag      Idel     Icurv      Iadm
        22        17         4         0         1         0         0         0         0         0
#          GAP_SCALE             GAP_MAX
                   0                   0
#              STMIN               STMAX
                   0                   0
#              STFAC                FRIC             GAP_MIN              Tstart               Tstop
                   0                  .2                   0                   0                   0
#     I_BC                        INACTI               VIS_S               VIS_F              BUMULT
       000                             6                   0                   0                   0
#    Ifric    Ifiltr               Xfreq     Iform
         0         0                   0         0
/GRNOD/SURF/22
INTER_group_25_of_SURF
        17
/SURF/PART/17
INTER_group_24_of_PART
         9        10        12
#---1----|----2----|----3----|----4----|----5----|----6----|----7----|----8----|----9----|---10----|
/INTER/TYPE2/6
CONNECTION
#  Slav_id   Surf_id            Spotflag     Level   Isearch      Idel                       Dsearch
        23        31                  28         0         0         0         0                   0
#              Stfac
                 1.0
/GRNOD/NODE/23
GROUP       23 FOR CONNECTION
      1175      1177      1179      1181      1183      1185      1187
/SURF/PART/31
SURF       31 FOR CONNECTION
         9
#---1----|----2----|----3----|----4----|----5----|----6----|----7----|----8----|----9----|---10----|
/INTER/TYPE2/7
CONNECTION
#  Slav_id   Surf_id            Spotflag     Level   Isearch      Idel                       Dsearch
        24        32                  28         0         0         0         0                   0
#              Stfac
                 1.0
/GRNOD/NODE/24
GROUP       24 FOR CONNECTION
      1176      1178      1180      1182      1184      1186      1188
/SURF/PART/32
SURF       32 FOR CONNECTION
        10
#---1----|----2----|----3----|----4----|----5----|----6----|----7----|----8----|----9----|---10----|
# SPRING elements of /PART/11/E_SPOTWELD_1:
#---1----|----2----|----3----|----4----|----5----|----6----|----7----|----8----|----9----|---10----|
/SPRING/11
       339      1175      1176          
       340      1177      1178          
       341      1179      1180          
       342      1181      1182          
       343      1183      1184          
       344      1185      1186          
       345      1187      1188          
#---1----|----2----|----3----|----4----|----5----|----6----|----7----|----8----|----9----|---10----|
#- 10. RIGID BODIES:
#---1----|----2----|----3----|----4----|----5----|----6----|----7----|----8----|----9----|---10----|
/RBODY/5
top_1
#     RBID     ISENS     NSKEW    ISPHER                MASS   Gnod_id     IKREM      ICOG   Surf_id
       789         0         0         0                   0        20         0         0         0
#                Jxx                 Jyy                 Jzz
                   0                   0                   0
#                Jxy                 Jyz                 Jxz
                   0                   0                   0
/GRNOD/NODE/20
RBODY_group_22_of_NODE
       793       794       977       978       979       980       981       982
#---1----|----2----|----3----|----4----|----5----|----6----|----7----|----8----|----9----|---10----|
/RBODY/6
top_2
#     RBID     ISENS     NSKEW    ISPHER                MASS   Gnod_id     IKREM      ICOG   Surf_id
       790         0         0         0                   0        21         0         0         0
#                Jxx                 Jyy                 Jzz
                   0                   0                   0
#                Jxy                 Jyz                 Jxz
                   0                   0                   0
/GRNOD/NODE/21
RBODY_group_23_of_NODE
       985       986      1169      1170      1171      1172      1173      1174
#---1----|----2----|----3----|----4----|----5----|----6----|----7----|----8----|----9----|---10----|
#- 11. IMPOSED DISPLACEMENTS:
#---1----|----2----|----3----|----4----|----5----|----6----|----7----|----8----|----9----|---10----|
/IMPDISP/1
Top_2
#   Ifunct       DIR     Iskew   Isensor   Gnod_id
         1         X         0         0         3
#            Scale_x             Scale_y              Tstart               Tstop
                   0                   1                   0                   0
/GRNOD/NODE/3
Top_2_1
       790
#---1----|----2----|----3----|----4----|----5----|----6----|----7----|----8----|----9----|---10----|
#- 12. TIME HISTORIES:
#---1----|----2----|----3----|----4----|----5----|----6----|----7----|----8----|----9----|---10----|
/TH/NODE/11
Master_Node
#     var1      var2      var3      var4      var5      var6      var7      var8      var9     var10
DEF       
#    NODid     Iskew                                           NODname
       789         0Original single 1                                                               
       790         0Original single 2                                                               
#---1----|----2----|----3----|----4----|----5----|----6----|----7----|----8----|----9----|---10----|
/TH/RBODY/12
top_1
#     var1      var2      var3      var4      var5      var6      var7      var8      var9     var10
DEF       
#     Obj1      Obj2      Obj3      Obj4      Obj5      Obj6      Obj7      Obj8      Obj9     Obj10
         5         6
#---1----|----2----|----3----|----4----|----5----|----6----|----7----|----8----|----9----|---10----|
$/TH/INTER/13
$TH INTER
$#     var1      var2      var3      var4      var5      var6      var7      var8      var9     var10
$DEF       
$#     Obj1      Obj2      Obj3      Obj4      Obj5      Obj6      Obj7      Obj8      Obj9     Obj10
$         5
#---1----|----2----|----3----|----4----|----5----|----6----|----7----|----8----|----9----|---10----|
/TH/PART/14
new_th_part
#     var1      var2      var3      var4      var5      var6      var7      var8      var9     var10
DEF       
#     Obj1      Obj2      Obj3      Obj4      Obj5      Obj6      Obj7      Obj8      Obj9     Obj10
         9        10
#---1----|----2----|----3----|----4----|----5----|----6----|----7----|----8----|----9----|---10----|
/TH/SPRING/15
CONNECTION_SPOTWELD
#     var1      var2      var3      var4      var5      var6      var7      var8      var9     var10
DEF       
#    NODid                                                     NODname
       339          E_SPOTWELD_1                                                                    
       340          E_SPOTWELD_2                                                                    
       341          E_SPOTWELD_3                                                                    
       342          E_SPOTWELD_4                                                                    
       343          E_SPOTWELD_5                                                                    
       344          E_SPOTWELD_6                                                                    
       345          E_SPOTWELD_7                                                                    
#---1----|----2----|----3----|----4----|----5----|----6----|----7----|----8----|----9----|---10----|
/END
#---1----|----2----|----3----|----4----|----5----|----6----|----7----|----8----|----9----|---10----|
