#RADIOSS STARTER
# Copyright (C) 2024 Altair Engineering Inc. ("Holder")
# Model is licensed by Holder under CC BY-NC 4.0
# (https://creativecommons.org/licenses/by-nc/4.0/legalcode).
# Copyright (C) 2022 Altair Engineering Inc. ("Holder")
# Model is licensed by Holder under CC BY-NC 4.0
# (https://creativecommons.org/licenses/by-nc/4.0/legalcode).
##========================================================================================
##
## Radioss Input Deck Generated by HyperMesh Version  : 13.0.0.119
## Generated using HyperMesh-Radioss Template Version : 13.0
## Date: 12-21-2014   Time: 13:55:59
##
##========================================================================================
## 
/BEGIN
mapSimple                                                                       
       120         0
                 1.0                 1.0                 1.0
                 1.0                 1.0                 1.0
##
##
##--------------------------------------------------------------------------------------------------
## Material Law No 1. ELASTIC
##--------------------------------------------------------------------------------------------------
/MAT/ELAST/1
Mat1                                                                                                
7.80000000000000E-06
               210.0                 0.3
##--------------------------------------------------------------------------------------------------
## NODES
##--------------------------------------------------------------------------------------------------
/NODE
         1                 0.0                 0.0                 0.0
         2                20.0                 0.0                 0.0
         3                40.0                 0.0                 0.0
         4                60.0                 0.0                 0.0
         5                80.0                 0.0                 0.0
         6               100.0                 0.0                 0.0
         7               120.0                 0.0                 0.0
         8               140.0                 0.0                 0.0
         9               160.0-1.5258789062500E-05                 0.0
        10               180.0                 0.0                 0.0
        11               200.0                 0.0                 0.0
        12               220.0                 0.0                 0.0
        13               240.0                 0.0                 0.0
        14               260.0                 0.0                 0.0
        15               280.0                 0.0                 0.0
        16               300.0                 0.0                 0.0
        17               320.0                 0.0                 0.0
        18               340.0                 0.0                 0.0
        19               360.0                 0.0                 0.0
        20               380.0                 0.0                 0.0
# ... 8408 like lines cut
##--------------------------------------------------------------------------------------------------
## Quad Shell Elements
##--------------------------------------------------------------------------------------------------
/SHELL/1
         1       194       196       198       193                                                  
         2       193       198       189       190                                                  
         3       196       197       199       198                                                  
         4       198       199       188       189                                                  
         5       197       181       182       199                                                  
         6       199       182       183       188                                                  
         7       171       172       200       195                                                  
         8       195       200       196       194                                                  
         9       172       173       201       200                                                  
        10       200       201       197       196                                                  
        11       173       174       180       201                                                  
        12       201       180       181       197                                                  
        13       157       202       204       156                                                  
        14       156       204       192       155                                                  
        15       202       203       205       204                                                  
        16       204       205       191       192                                                  
        17       203       194       193       205                                                  
        18       205       193       190       191                                                  
        19       159       169       206       158                                                  
        20       158       206       202       157                                                  
# ... 4080 like lines cut
/SHELL/2
      4101      4523      4525      4527      4522                                                  
      4102      4522      4527      4518      4519                                                  
      4103      4525      4526      4528      4527                                                  
      4104      4527      4528      4517      4518                                                  
      4105      4526      4510      4511      4528                                                  
      4106      4528      4511      4512      4517                                                  
      4107      4500      4501      4529      4524                                                  
      4108      4524      4529      4525      4523                                                  
      4109      4501      4502      4530      4529                                                  
      4110      4529      4530      4526      4525                                                  
      4111      4502      4503      4509      4530                                                  
      4112      4530      4509      4510      4526                                                  
      4113      4486      4531      4533      4485                                                  
      4114      4485      4533      4521      4484                                                  
      4115      4531      4532      4534      4533                                                  
      4116      4533      4534      4520      4521                                                  
      4117      4532      4523      4522      4534                                                  
      4118      4534      4522      4519      4520                                                  
      4119      4488      4498      4535      4487                                                  
      4120      4487      4535      4531      4486                                                  
# ... 4080 like lines cut
##--------------------------------------------------------------------------------------------------
## Shell Property Set (pid 1)
##--------------------------------------------------------------------------------------------------
/PROP/SHELL/1
Shell                                                                                               
                                        
                                                                                                    
                                     1.0                                                  
##--------------------------------------------------------------------------------------------------
## Spring Property Set (pid 4)
##--------------------------------------------------------------------------------------------------
/PROP/SPRING/2
spring                                                                                              
1.00000000000000E-03                                       0                    
                 0.0                                                                                
                                                                                                    
                                                            
##--------------------------------------------------------------------------------------------------
## Functions
##--------------------------------------------------------------------------------------------------
##HWCOLOR curves 1 11
/FUNCT/1
curve1                                                                                              
                 0.0                 0.0
              0.01253.85482000000000E-04
               0.025         0.001541334
              0.0375         0.003465774
                0.05         0.006155834
              0.0625         0.009607367
               0.075          0.01381505
              0.0875         0.018772395
                 0.1          0.02447176
              0.1125         0.030904354
               0.125         0.038060261
              0.1375         0.045928446
                0.15         0.054496777
              0.1625         0.063752042
               0.175         0.073679971
              0.1875         0.084265254
                 0.2         0.095491572
              0.2125         0.107341612
               0.225         0.119797103
              0.2375         0.132838841
# ... 62 like lines cut
/MOVE_FUNCT/1
curve1                                                                          
                20.0                                                            
##--------------------------------------------------------------------------------------------------
## Imposed Displacements
##--------------------------------------------------------------------------------------------------
/IMPDISP/FGEO/10
ImpDisp_prescribed final geometry
#---+----1----+----2----+----3----+----4----+----5----+----6----+----7----+----8
         1                             0               
1.00000000000000                               0.0
         1  564.5227836737      303.3103318889      920.1792715322    
         2  573.9477430989      298.6336465545      917.2535640739    
         3  583.5728940932      294.1213689140      914.3052181241    
         4  593.4765265958      289.7128119062      911.3569884675    
         5  603.6872527288      285.3990605985      908.4167219739    
/IMPDISP/FGEO/11
ImpDisp_prescribed final geometry
#---+----1----+----2----+----3----+----4----+----5----+----6----+----7----+----8
         1                             0               
1.00000000000000                               0.0
       194  728.7284272042      344.5899377403      804.5770157233    
       196  746.6722618474      343.3267176052      801.3146197186    
       198  745.7653271742      355.1894503366      795.2295633526    
       193  727.5975318712      356.3569366096      798.5053259739    
       189  744.9621881479      367.5647792652      789.2893338090    
       190  726.5906220661      368.6432541512      792.5639185820    
       197  764.9589604088      342.2223520017      798.4005027033    
       199  764.2596066807      354.1629809386      792.3154979885    
       188  763.6410696984      366.6089232540      786.3876586355    
       181  783.5648108502      341.2677065374      795.8484801279    
       182  783.0477400692      353.2556865460      789.7816360659    
       183  782.5924992122      365.7483557809      783.8769738523    
       171  731.3698717969      322.6685541300      816.9942847836    
       172  748.8122739785      321.2088198459      813.8020276678    
       200  747.6828010746      331.9928752099      807.5180938308    
       195  729.9838838458      333.3566715478      810.7508983423    
       173  766.6448240854      319.9652867970      810.9057374472    
       201  765.7538466719      330.8252749609      804.6032747256    
# ... 4191 like lines cut
#---1----|----2----|----3----|----4----|----5----|----6----|----7----|----8----|----9----|---10----|
/TH/NODE/1
NULL
#     var1      var2      var3      var4      var5      var6      var7      var8      var9     var10
DEF       
#     Obj1      
         1
       194
      4000
##--------------------------------------------------------------------------------------------------
## Sets
##--------------------------------------------------------------------------------------------------
##--------------------------------------------------------------------------------------------------
## Parts
##--------------------------------------------------------------------------------------------------
##HWCOLOR components 1 4
/PART/1
source                                                                                              
         1         1                              
##HWCOLOR components 2 3
/PART/2
destination                                                                                         
         1         1                              
##HWCOLOR components 3 6
/PART/3
spring                                                                                              
         2         0                              
##------------------------------------------------------------------------------
## End Of Radioss Block Deck
##------------------------------------------------------------------------------
/END

