#RADIOSS STARTER
#--------------------------------------------------------------------------------------------------|
#- RADIOSS DECK WRITTEN BY HyperCrash
#HyperCrash 2019.1 (64 bits) 
#Fri Mar  6 16:07:16 2020
#-
# INPUT DECK / GENERATED BY  MODEDIT V4.1f
#
#DATE	Mon May 22 17:10:54 2000
#
# RADIOSS STARTER INPUT DECK
# BAR2V21D00    TRANSLATED  FROM  BAR2D00
#
#-
#- DATE	Fri Mar  6 16:07:16 2020
#--------------------------------------------------------------------------------------------------|
#---1----|----2----|----3----|----4----|----5----|----6----|----7----|----8----|----9----|---10----|
/BEGIN
BAR2V41B                                                                        
      2017         0
                  kg                   m                   s
                  kg                   m                   s
#---1----|----2----|----3----|----4----|----5----|----6----|----7----|----8----|----9----|---10----|
#-  1. CONTROL CARDS:
#---1----|----2----|----3----|----4----|----5----|----6----|----7----|----8----|----9----|---10----|
/TITLE
BAR2V21 IMPACT 227M/S TEST ALE ELASTOPLAST
#---1----|----2----|----3----|----4----|----5----|----6----|----7----|----8----|----9----|---10----|
#include qadiags.inc
#---1----|----2----|----3----|----4----|----5----|----6----|----7----|----8----|----9----|---10----|
/RANDOM
#       Random-Noise                Seed
                   0                   0
#---1----|----2----|----3----|----4----|----5----|----6----|----7----|----8----|----9----|---10----|
/SPMD
#   DOMDEC     Nproc              Dkword             Nthread
         0         0                   0                   0
#---1----|----2----|----3----|----4----|----5----|----6----|----7----|----8----|----9----|---10----|
/IOFLAG
#     IPRI               IGTYP     IOUTP    IOUTYY   IROOTYY     IDROT
         5                   0         0         0         0         0
#---1----|----2----|----3----|----4----|----5----|----6----|----7----|----8----|----9----|---10----|
/ANALY
#    N2D3D             IPARITH      ISUB
         1                   0         0
#---1----|----2----|----3----|----4----|----5----|----6----|----7----|----8----|----9----|---10----|
/DEF_SOLID
#  I_SOLID    ISMSTR             ISTRAIN                                  IFRAME
         0         0                   0                                       0
#---1----|----2----|----3----|----4----|----5----|----6----|----7----|----8----|----9----|---10----|
/DEF_SHELL
#   ISHELL    ISMSTR    ITHICK     IPLAS   ISTRAIN                        I_SH3N     IDRIL
         0         0         0         0         0                             1         0
#---1----|----2----|----3----|----4----|----5----|----6----|----7----|----8----|----9----|---10----|
/ALE/GRID/DONEA
#        DONEA-coeff       Grid-vel-fact                 CWx                 CWy                 CWz
      .500000007E-01          1.00000000          .000000000          .000000000          .000000000    
#      ALE-min-volum       Upwind coef 1       Upwind coef 2
          .000000000          .000000000          .000000000    
#---1----|----2----|----3----|----4----|----5----|----6----|----7----|----8----|----9----|---10----|
/SHFRA/V4
#---1----|----2----|----3----|----4----|----5----|----6----|----7----|----8----|----9----|---10----|
#-  2. MATERIALS:
#---1----|----2----|----3----|----4----|----5----|----6----|----7----|----8----|----9----|---10----|
/ALE/MAT/1
                   0
/MAT/LAW3/1
CUIVRE
#              RHO_0
          8.93000031
#                  E                  nu
          1.16999996          .349999994
#                  a                   b                   n             eps_max           sigma_max
        .00400000019        .00100000005          1.00000095                   0                   0
#               Pmin
                   0
#---1----|----2----|----3----|----4----|----5----|----6----|----7----|----8----|----9----|---10----|
#-  3. NODES:
#---1----|----2----|----3----|----4----|----5----|----6----|----7----|----8----|----9----|---10----|
/NODE
         1                   0                   0                   0
         2                   0          .064000003                   0
         3                   0           .12800001                   0
         4                   0                .192                   0
         5                   0           .25600001                   0
         6                   0           .31999999                   0
         7                   0                   0          .064800002
         8                   0          .064000003          .064800002
         9                   0           .12800001          .064800002
        10                   0                .192          .064800002
        11                   0           .25600001          .064800002
        12                   0           .31999999          .064800002
        13                   0                   0               .1296
        14                   0          .064000003               .1296
        15                   0           .12800001               .1296
        16                   0                .192               .1296
        17                   0           .25600001               .1296
        18                   0           .31999999               .1296
        19                   0                   0               .1944
        20                   0          .064000003               .1944
# ... 286 like lines cut
#---1----|----2----|----3----|----4----|----5----|----6----|----7----|----8----|----9----|---10----|
#-  4. BOUNDARY CONDITIONS:
#---1----|----2----|----3----|----4----|----5----|----6----|----7----|----8----|----9----|---10----|
/BCS/2
BAR2V21D00_bcs1_111_000
#  Tra rot   skew_ID  grnod_ID
   111 000         0         2
/GRNOD/NODE/2
BAR2V21D00_bcs1_111_000
         1
/ALE/BCS/1
BAR2V21D00_bcs1_111_000
   111 000         0         2
#---1----|----2----|----3----|----4----|----5----|----6----|----7----|----8----|----9----|---10----|
/BCS/4
BAR2V21D00_bcs2_101_000
#  Tra rot   skew_ID  grnod_ID
   101 000         0         3
/GRNOD/NODE/3
BAR2V21D00_bcs2_101_000
         2         3         4         5
/ALE/BCS/3
BAR2V21D00_bcs2_101_000
   101 000         0         3
#---1----|----2----|----3----|----4----|----5----|----6----|----7----|----8----|----9----|---10----|
/BCS/6
BAR2V21D00_bcs3_101_000
#  Tra rot   skew_ID  grnod_ID
   101 000         0         4
/GRNOD/NODE/4
BAR2V21D00_bcs3_101_000
         6
/ALE/BCS/5
BAR2V21D00_bcs3_101_000
   101 011         0         4
#---1----|----2----|----3----|----4----|----5----|----6----|----7----|----8----|----9----|---10----|
/BCS/8
BAR2V21D00_bcs4_110_000
#  Tra rot   skew_ID  grnod_ID
   110 000         0         5
/GRNOD/NODE/5
BAR2V21D00_bcs4_110_000
         7        13        19        25        31        37        43        49        55        61
        67        73        79        85        91        97       103       109       115       121
       127       133       139       145       151       157       163       169       175       181
       187       193       199       205       211       217       223       229       235       241
       247       253       259       265       271       277       283       289       295
/ALE/BCS/7
BAR2V21D00_bcs4_110_000
   110 000         0         5
#---1----|----2----|----3----|----4----|----5----|----6----|----7----|----8----|----9----|---10----|
/BCS/10
BAR2V21D00_bcs5_100_000
#  Tra rot   skew_ID  grnod_ID
   100 000         0         6
/GRNOD/NODE/6
BAR2V21D00_bcs5_100_000
        12        18        24        30        36        42        48        54        60        66
        72        78        84        90        96       102       108       114       120       126
       132       138       144       150       156       162       168       174       180       186
       192       198       204       210       216       222       228       234       240       246
       252       258       264       270       276       282       288       294       296
/ALE/BCS/9
BAR2V21D00_bcs5_100_000
   100 011         0         6
#---1----|----2----|----3----|----4----|----5----|----6----|----7----|----8----|----9----|---10----|
/BCS/12
BAR2V21D00_bcs6_110_000
#  Tra rot   skew_ID  grnod_ID
   110 000         0         7
/GRNOD/NODE/7
BAR2V21D00_bcs6_110_000
       301
/ALE/BCS/11
BAR2V21D00_bcs6_110_000
   110 111         0         7
#---1----|----2----|----3----|----4----|----5----|----6----|----7----|----8----|----9----|---10----|
/BCS/14
BAR2V21D00_bcs7_100_000
#  Tra rot   skew_ID  grnod_ID
   100 000         0         8
/GRNOD/NODE/8
BAR2V21D00_bcs7_100_000
       302       303       304       305       306
/ALE/BCS/13
BAR2V21D00_bcs7_100_000
   100 111         0       8
#---1----|----2----|----3----|----4----|----5----|----6----|----7----|----8----|----9----|---10----|
#-  5. SKEWS & FRAMES:
#---1----|----2----|----3----|----4----|----5----|----6----|----7----|----8----|----9----|---10----|
/SKEW/FIX/1
BAR2V21D00_skew1
#                 OX                  OY                  OZ
                   0                   0                   0
#                 X1                  Y1                  Z1
                   0                   1                   0
#                 X2                  Y2                  Z2
                   0                   0                   1
#---1----|----2----|----3----|----4----|----5----|----6----|----7----|----8----|----9----|---10----|
#-  6. PARTS:
#---1----|----2----|----3----|----4----|----5----|----6----|----7----|----8----|----9----|---10----|
/PART/1
CUIVRE
         1         1         0
#---1----|----2----|----3----|----4----|----5----|----6----|----7----|----8----|----9----|---10----|
# QUAD elements of /PART/1/CUIVRE:
#---1----|----2----|----3----|----4----|----5----|----6----|----7----|----8----|----9----|---10----|
/QUAD/1
         1         1         2         8         7
         2         2         3         9         8
         3         3         4        10         9
         4         4         5        11        10
         5         5         6        12        11
         6         7         8        14        13
         7         8         9        15        14
         8         9        10        16        15
         9        10        11        17        16
        10        11        12        18        17
        11        13        14        20        19
        12        14        15        21        20
        13        15        16        22        21
        14        16        17        23        22
        15        17        18        24        23
        16        19        20        26        25
        17        20        21        27        26
        18        21        22        28        27
        19        22        23        29        28
        20        23        24        30        29
# ... 230 like lines cut
#---1----|----2----|----3----|----4----|----5----|----6----|----7----|----8----|----9----|---10----|
#-  7. GEOMETRICAL SETS:
#---1----|----2----|----3----|----4----|----5----|----6----|----7----|----8----|----9----|---10----|
/PROP/TYPE14/1
CUIVRE
#   Isolid    Ismstr               Icpre               Inpts    Itetra    Iframe                  dn
         0         0                   0                   0         0         0                   0
#                q_a                 q_b                   h            LAMBDA_V                MU_V
                   0                   0                   0                   0                   0
#             dt_min   istrain      IHKT
                   0         0         0
#---1----|----2----|----3----|----4----|----5----|----6----|----7----|----8----|----9----|---10----|
#-  8. INITIAL VELOCITIES:
#---1----|----2----|----3----|----4----|----5----|----6----|----7----|----8----|----9----|---10----|
/INIVEL/TRA/1
BAR2V21D00_inivel_1
#                 Vx                  Vy                  Vz   Gnod_id   Skew_id
                   0                   0                   0         9         0
/GRNOD/NODE/9
BAR2V21D00_inivel_1
         1         2         3         4         5         6
#---1----|----2----|----3----|----4----|----5----|----6----|----7----|----8----|----9----|---10----|
/INIVEL/T+G/2
BAR2V21D00_inivel_7
#                 Vx                  Vy                  Vz   Gnod_id   Skew_id
                   0                   0        -.0227000006        10         0
/GRNOD/NODE/10
BAR2V21D00_inivel_7
         7         8         9        10        11        12        13        14        15        16
        17        18        19        20        21        22        23        24        25        26
        27        28        29        30        31        32        33        34        35        36
        37        38        39        40        41        42        43        44        45        46
        47        48        49        50        51        52        53        54        55        56
        57        58        59        60        61        62        63        64        65        66
        67        68        69        70        71        72        73        74        75        76
        77        78        79        80        81        82        83        84        85        86
        87        88        89        90        91        92        93        94        95        96
        97        98        99       100       101       102       103       104       105       106
       107       108       109       110       111       112       113       114       115       116
       117       118       119       120       121       122       123       124       125       126
       127       128       129       130       131       132       133       134       135       136
       137       138       139       140       141       142       143       144       145       146
       147       148       149       150       151       152       153       154       155       156
       157       158       159       160       161       162       163       164       165       166
       167       168       169       170       171       172       173       174       175       176
       177       178       179       180       181       182       183       184       185       186
       187       188       189       190       191       192       193       194       195       196
       197       198       199       200       201       202       203       204       205       206
# ... 10 like lines cut
#---1----|----2----|----3----|----4----|----5----|----6----|----7----|----8----|----9----|---10----|
#-  9. TIME HISTORIES:
#---1----|----2----|----3----|----4----|----5----|----6----|----7----|----8----|----9----|---10----|
/TH/PART/1
Part selection
#     var1      var2      var3      var4      var5      var6      var7      var8      var9     var10
DEF       
#     Obj1      Obj2      Obj3      Obj4      Obj5      Obj6      Obj7      Obj8      Obj9     Obj10
         1
#---1----|----2----|----3----|----4----|----5----|----6----|----7----|----8----|----9----|---10----|
/TH/NODE/2
BAR2V21D00_th_nodes
#     var1      var2      var3      var4      var5      var6      var7      var8      var9     var10
DEF       
#    NODid     Iskew                                           NODname
         6         0                                                                                
        12         0                                                                                
        18         0                                                                                
        24         0                                                                                
        30         0                                                                                
        36         0                                                                                
#---1----|----2----|----3----|----4----|----5----|----6----|----7----|----8----|----9----|---10----|
/TH/QUAD/3
BAR2V21D00_th_2Dsolid
#     var1      var2      var3      var4      var5      var6      var7      var8      var9     var10
DEF       
#     Elid                                                      Elname
         5                                                                                          
        15                                                                                          
        25                                                                                          
        35                                                                                          
        45                                                                                          
#---1----|----2----|----3----|----4----|----5----|----6----|----7----|----8----|----9----|---10----|
/END
#---1----|----2----|----3----|----4----|----5----|----6----|----7----|----8----|----9----|---10----|
