#RADIOSS STARTER
# Copyright (C) 2024 Altair Engineering Inc. ("Holder")
# Model is licensed by Holder under CC BY-NC 4.0
# (https://creativecommons.org/licenses/by-nc/4.0/legalcode).
# Copyright (C) 2022 Altair Engineering Inc. ("Holder")
# Model is licensed by Holder under CC BY-NC 4.0
# (https://creativecommons.org/licenses/by-nc/4.0/legalcode).
#--------------------------------------------------------------------------------------------------|
#- RADIOSS DECK WRITTEN BY HyperCrash
#HyperCrash 10.0 SA2 
#Tue Apr 13 16:40:08 2010
#-
#------------------------------------------------------------------------------|
# RADIOSS STARTER INPUT DECK - BLOCK FORMAT
#------------------------------------------------------------------------------|
#-
#- RADIOSS DECK WRITTEN BY M-Crash
#MECALOG - M-Crash PREPROCESSOR 2.5.2
#Wed Jan 20 16:14:14 2010
#-
#
#-
#- DATE	Tue Apr 13 16:40:08 2010
#--------------------------------------------------------------------------------------------------|
#---1----|----2----|----3----|----4----|----5----|----6----|----7----|----8----|----9----|---10----|
/BEGIN
1ELEM_SAMP                                                                      
       100         0
                  kg                  mm                  ms
                  kg                  mm                  ms
#---1----|----2----|----3----|----4----|----5----|----6----|----7----|----8----|----9----|---10----|
#-  1. CONTROL CARDS:
#---1----|----2----|----3----|----4----|----5----|----6----|----7----|----8----|----9----|---10----|
/TITLE
1EL
/SPMD
#   DOMDEC      SPMD              DECMOT
         0         0                   0
/IOFLAG
#     IPRI     IRTYP     IGTYP     IOUTP    IOUTYY   IROOTYY                                 IRTYP_R
         0         0         0         0         0         0                                       0
/ANALY
#    N2D3D     INTEG   IPARITH      ISUB
         0         0         0         0
/DEF_SOLID
#  I_SOLID    ISMSTR             ISTRAIN                                  IFRAME
         0         0                   0                                       0
/DEF_SHELL
#   ISHELL    ISMSTR    ITHICK     IPLAS   ISTRAIN                        I_SH3N
         0         0         0         0         0                             1
#---1----|----2----|----3----|----4----|----5----|----6----|----7----|----8----|----9----|---10----|
#-  2. MATERIALS:
#---1----|----2----|----3----|----4----|----5----|----6----|----7----|----8----|----9----|---10----|
#---1----|----2----|----3----|----4----|----5----|----6----|----7----|----8----|----9----|---10----|
/MAT/PLAS_TAB/2
Steel
#        Init. dens.          Ref. dens.
              7.8E-6                   0
#                  E                  Nu           Eps_p_max              Eps_t1              Eps_t2
                 210                  .3                   0                   0                   0
#    Nfunc   Fsmooth               Chard                Fcut               Eps_f
         4         1                   0                  10                   0
#    Ipfun             Fpscale
         0                   0
# Functions
        14        14        14        14
# Scale factors
                   1                 1.0                 1.2                 1.2
# Strain rates
                1e-6                1e-5                 0.1                 1.0
#---1----|----2----|----3----|----4----|----5----|----6----|----7----|----8----|----9----|---10----|
#---1----|----2----|----3----|----4----|----5----|----6----|----7----|----8----|----9----|---10----|
#
#                             NEW !!! Tabulated Failure criteria
#
#---1----|----2----|----3----|----4----|----5----|----6----|----7----|----8----|----9----|---10----|
#---1----|----2----|----3----|----4----|----5----|----6----|----7----|----8----|----9----|---10----|
/FAIL/TAB/2
#---1----|----2----|----3----|----4----|----5----|----6----|----7----|----8----|----9----|---10----|
#  I_shell   I_solid     Nrate                     Thickfail                
         3         2         2                           0.4                 
#CARD2  - Damage accumulation
#             Dcrit                    D                   n
                 1.1                 1.0                 1.0
#---1----|----2----|----3----|----4----|----5----|----6----|----7----|----8----|----9----|---10----|
#CARD3  - Failure strain functions for each defined strain rate  (Nrate lines, at least one)
#---1----|----2----|----3----|----4----|----5----|----6----|----7----|----8----|----9----|---10----|
#  Func_Id              Fscale              Epsdot
        20                 0.5              1.0e-5
        20                 1.0                 0.5
#---1----|----2----|----3----|----4----|----5----|----6----|----7----|----8----|----9----|---10----|
#CARD4 - Element size scale function
# Elfun_Id           Fscale_el              El_ref
        21                   1                 1.0
#---1----|----2----|----3----|----4----|----5----|----6----|----7----|----8----|----9----|---10----|
#CARD5 - Temperature scale function
#  Tfun_Id            Fscale_T      
        22                 1.0 
#---1----|----2----|----3----|----4----|----5----|----6----|----7----|----8----|----9----|---10----|
/FUNCT/20
fail strain vs triaxiality
#                  X                   Y
                -1.0               3.088                                                            
        -0.666666667               3.088
            -0.57735               2.173
                -0.5               1.604
               -0.45               1.319
                -0.4               1.086
               -0.35               0.894
          -0.3333333               0.838
                -0.3               0.737
               -0.25               0.608
                -0.2               0.502
               -0.15               0.416
                -0.1               0.344
               -0.05               0.286
                0.00               0.300
                0.05               0.320
                 0.1               0.330
                0.15               0.340
                 0.2               0.350
                0.25               0.355
# ... 9 like lines cut
#---1----|----2----|----3----|----4----|----5----|----6----|----7----|----8----|----9----|---10----|
/FUNCT/21
Element length regularisation
#                  X                   Y
                   0                 1.0                                                            
                  10                 1.0                                                            
#---1----|----2----|----3----|----4----|----5----|----6----|----7----|----8----|----9----|---10----|
/FUNCT/22
Temperature scale function
#                  X                   Y
                   0                 1.0                                                            
                1000                 1.0                                                            
#---1----|----2----|----3----|----4----|----5----|----6----|----7----|----8----|----9----|---10----|
/FUNCT/23
Damage scale function
#                  X                   Y
                   0                 0.0                                                            
             0.00001                 1.0                                                            
                   2                 1.0                                                            
#---1----|----2----|----3----|----4----|----5----|----6----|----7----|----8----|----9----|---10----|
/FUNCT/14
Steel
#                  X                   Y
                   0                .306                                                            
              .00112                .415                                                            
              .00218                .445                                                            
                .003                .461                                                            
              .00404                .474                                                            
              .00517                .489                                                            
              .00613                .498                                                            
               .0071                .505                                                            
              .00806                .512                                                            
              .00901                .522                                                            
               .0102                 .53                                                            
               .0121                .543                                                            
                .013                 .55                                                            
                .014                .555                                                            
                .015                .561                                                            
               .0159                .567                                                            
               .0171                .572                                                            
               .0181                .577                                                            
               .0204                .592                                                            
               .0303                .632                                                            
# ... 14 like lines cut
#---1----|----2----|----3----|----4----|----5----|----6----|----7----|----8----|----9----|---10----|
#---1----|----2----|----3----|----4----|----5----|----6----|----7----|----8----|----9----|---10----|
#-  3. NODES:
#---1----|----2----|----3----|----4----|----5----|----6----|----7----|----8----|----9----|---10----|
/NODE
         1                   0                   0                   0
         2                   5                   0                   0
         3                   5                   5                   0
         4                   0                   5                   0
        81                  80                 -20                   0
        82                  90                 -20                   0
        83                  90                 -10                   0
        84                  80                 -10                   0
#---1----|----2----|----3----|----4----|----5----|----6----|----7----|----8----|----9----|---10----|
#-  4. BOUNDARY CONDITIONS:
#---1----|----2----|----3----|----4----|----5----|----6----|----7----|----8----|----9----|---10----|
/BCS/1
uniaxialer Zug 1
#   trarot   Skew_id   Gnod_id
   111 000         0         1
/GRNOD/NODE/1
NULL
         1
#---1----|----2----|----3----|----4----|----5----|----6----|----7----|----8----|----9----|---10----|
/BCS/2
uniaxialer Zug 2
#   trarot   Skew_id   Gnod_id
   011 000         0         2
/GRNOD/NODE/2
NULL
         2
#---1----|----2----|----3----|----4----|----5----|----6----|----7----|----8----|----9----|---10----|
/BCS/3
uniaxialer Zug 3
#   trarot   Skew_id   Gnod_id
   001 000         0         3
/GRNOD/NODE/3
NULL
         3
#---1----|----2----|----3----|----4----|----5----|----6----|----7----|----8----|----9----|---10----|
/BCS/4
uniaxialer Zug 4
#   trarot   Skew_id   Gnod_id
   101 000         0         4
/GRNOD/NODE/4
NULL
         4
#---1----|----2----|----3----|----4----|----5----|----6----|----7----|----8----|----9----|---10----|
/BCS/81
uniaxialer Zug 1
#   trarot   Skew_id   Gnod_id
   111 000         0        33
/GRNOD/NODE/33
NULL
        81
#---1----|----2----|----3----|----4----|----5----|----6----|----7----|----8----|----9----|---10----|
/BCS/82
uniaxialer Zug 2
#   trarot   Skew_id   Gnod_id
   011 000         0        34
/GRNOD/NODE/34
NULL
        82
#---1----|----2----|----3----|----4----|----5----|----6----|----7----|----8----|----9----|---10----|
/BCS/83
uniaxialer Zug 3
#   trarot   Skew_id   Gnod_id
   001 000         0        35
/GRNOD/NODE/35
NULL
        83
#---1----|----2----|----3----|----4----|----5----|----6----|----7----|----8----|----9----|---10----|
/BCS/84
uniaxialer Zug 4
#   trarot   Skew_id   Gnod_id
   101 000         0        36
/GRNOD/NODE/36
NULL
        84
#---1----|----2----|----3----|----4----|----5----|----6----|----7----|----8----|----9----|---10----|
#-  5. PARTS:
#---1----|----2----|----3----|----4----|----5----|----6----|----7----|----8----|----9----|---10----|
/PART/1
Shell part 1
         2         2         0
#---1----|----2----|----3----|----4----|----5----|----6----|----7----|----8----|----9----|---10----|
# SHELL elements of /PART/1/Shell part 1:
#---1----|----2----|----3----|----4----|----5----|----6----|----7----|----8----|----9----|---10----|
/SHELL/1
         1         1         2         3         4                                                 0
         9        81        82        83        84                                                 0
#---1----|----2----|----3----|----4----|----5----|----6----|----7----|----8----|----9----|---10----|
#-  6. GEOMETRICAL SETS:
#---1----|----2----|----3----|----4----|----5----|----6----|----7----|----8----|----9----|---10----|
/PROP/SHELL/2
new Property
#   Ishell    Ismstr     Ish3n
        24         0         0
#                 hm                  hf                  hr                  dm                  dn
                   0                   0                   0                   0                   0
#        N   Istrain               Thick              Ashear              Ithick     Iplas
         5         0                   1                   0                   1         1
#---1----|----2----|----3----|----4----|----5----|----6----|----7----|----8----|----9----|---10----|
#-  7. FUNCTIONS:
#---1----|----2----|----3----|----4----|----5----|----6----|----7----|----8----|----9----|---10----|
/FUNCT/1
curve +1
#                  X                   Y
                   0                   1                                                            
                  .5              1.0513                                                            
                   1              1.1052                                                            
                 1.5              1.1618                                                            
                   2              1.2214                                                            
                 2.5               1.284                                                            
                   3              1.3499                                                            
                 3.5              1.4191                                                            
                   4              1.4918                                                            
                 4.5              1.5683                                                            
                   5              1.6487                                                            
                 5.5              1.7333                                                            
                   6              1.8221                                                            
                 6.5              1.9155                                                            
                   7              2.0138                                                            
                 7.5               2.117                                                            
                   8              2.2255                                                            
                 8.5              2.3396                                                            
                   9              2.4596                                                            
                 9.5              2.5857                                                            
# ... 21 like lines cut
#---1----|----2----|----3----|----4----|----5----|----6----|----7----|----8----|----9----|---10----|
/FUNCT/2
curve -1
#                  X                   Y
                   0                  -1                                                            
                  .5             -.95123                                                            
                   1             -.90484                                                            
                 1.5             -.86071                                                            
                   2             -.81873                                                            
                 2.5              -.7788                                                            
                   3             -.74082                                                            
                 3.5             -.70469                                                            
                   4             -.67032                                                            
                 4.5             -.63763                                                            
                   5             -.60653                                                            
                 5.5             -.57695                                                            
                   6             -.54881                                                            
                 6.5             -.52205                                                            
                   7             -.49659                                                            
                 7.5             -.47237                                                            
                   8             -.44933                                                            
                 8.5             -.42741                                                            
                   9             -.40657                                                            
                 9.5             -.38674                                                            
# ... 21 like lines cut
#---1----|----2----|----3----|----4----|----5----|----6----|----7----|----8----|----9----|---10----|
/FUNCT/3
curve shear
#                  X                   Y
                   0                   1                                                            
                  20                   1                                                            
#---1----|----2----|----3----|----4----|----5----|----6----|----7----|----8----|----9----|---10----|
#---1----|----2----|----3----|----4----|----5----|----6----|----7----|----8----|----9----|---10----|
#-  8. IMPOSED VELOCITIES:
#---1----|----2----|----3----|----4----|----5----|----6----|----7----|----8----|----9----|---10----|
/IMPVEL/1
uniaxialer Zug
#   Ifunct       DIR     Iskew   Isensor   Gnod_id    Iframe
         1         X         0         0        37         0
#            Scale_x             Scale_y              Tstart               Tstop
                   1                   1                   0                   0
/GRNOD/NODE/37
NULL
         2         3
#---1----|----2----|----3----|----4----|----5----|----6----|----7----|----8----|----9----|---10----|
/IMPVEL/12
uniaxialer Zug in y
#   Ifunct       DIR     Iskew   Isensor   Gnod_id    Iframe
         1         Y         0         0        48         0
#            Scale_x             Scale_y              Tstart               Tstop
                   1                   1                   0                   0
/GRNOD/NODE/48
NULL
        83        84
#---1----|----2----|----3----|----4----|----5----|----6----|----7----|----8----|----9----|---10----|
#-  9. TIME HISTORIES:
#---1----|----2----|----3----|----4----|----5----|----6----|----7----|----8----|----9----|---10----|
/TH/NODE/1
nodes
#     var1      var2      var3      var4      var5      var6      var7      var8      var9     var10
DEF       
#    NODid     Iskew                                           NODname
         1         0                                                                                
         2         0                                                                                
         3         0                                                                                
         4         0                                                                                
#---1----|----2----|----3----|----4----|----5----|----6----|----7----|----8----|----9----|---10----|
/TH/SHEL/2
Default
#     var1      var2      var3      var4      var5      var6      var7      var8      var9     var10
       DEF      EPSD
#    NODid                                                     NODname
         1                                                                                          
         9                                                                                          
#---1----|----2----|----3----|----4----|----5----|----6----|----7----|----8----|----9----|---10----|
#---1----|----2----|----3----|----4----|----5----|----6----|----7----|----8----|----9----|---10----|
/TH/SHEL/3
THIC
#     var1      var2      var3      var4      var5      var6      var7      var8      var9     var10
THIC       
#    NODid                                                     NODname
         1                                                                                          
         9                                                                                          
#---1----|----2----|----3----|----4----|----5----|----6----|----7----|----8----|----9----|---10----|
#include qadiags.inc
/END
#---1----|----2----|----3----|----4----|----5----|----6----|----7----|----8----|----9----|---10----|
