#RADIOSS STARTER
# Copyright (C) 2023 Altair Engineering Inc. ("Holder")
# Model is licensed by Holder under CC BY-NC 4.0
# (https://creativecommons.org/licenses/by-nc/4.0/legalcode).
# Copyright (C) 2022 Altair Engineering Inc. ("Holder")
# Model is licensed by Holder under CC BY-NC 4.0
# (https://creativecommons.org/licenses/by-nc/4.0/legalcode).
#--------------------------------------------------------------------------------------------------|
#- RADIOSS DECK WRITTEN BY HyperCrash
#HyperCrash 2019.1 (64 bits) 
#Mon Mar  9 09:48:23 2020
#-
# INPUT DECK / GENERATED BY  MODEDIT V4.1e
#
#DATE	Thu Feb  3 19:19:25 2000
#
#-------------------------------------------------------------------------------
#
#-
#- DATE	Mon Mar  9 09:48:23 2020
#--------------------------------------------------------------------------------------------------|
#---1----|----2----|----3----|----4----|----5----|----6----|----7----|----8----|----9----|---10----|
/BEGIN
LOI14                                                                           
      2019         0
                   g                  mm                  ms
                   g                  mm                  ms
#---1----|----2----|----3----|----4----|----5----|----6----|----7----|----8----|----9----|---10----|
#-  1. CONTROL CARDS:
#---1----|----2----|----3----|----4----|----5----|----6----|----7----|----8----|----9----|---10----|
/TITLE
TEST 1 ELEMENT 3D 8 PT INT
#---1----|----2----|----3----|----4----|----5----|----6----|----7----|----8----|----9----|---10----|
#include qadiags.inc
#---1----|----2----|----3----|----4----|----5----|----6----|----7----|----8----|----9----|---10----|
/RANDOM
#       Random-Noise                Seed
                   0                   0
#---1----|----2----|----3----|----4----|----5----|----6----|----7----|----8----|----9----|---10----|
/SPMD
#   DOMDEC     Nproc              Dkword             Nthread
         0         4                   0                   0
#---1----|----2----|----3----|----4----|----5----|----6----|----7----|----8----|----9----|---10----|
/IOFLAG
#     IPRI               IGTYP     IOUTP    IOUTYY   IROOTYY     IDROT
         5                   0         0         0         0         0
#---1----|----2----|----3----|----4----|----5----|----6----|----7----|----8----|----9----|---10----|
/ANALY
#    N2D3D             IPARITH      ISUB
         0                   0         0
#---1----|----2----|----3----|----4----|----5----|----6----|----7----|----8----|----9----|---10----|
/DEF_SOLID
#  I_SOLID    ISMSTR             ISTRAIN                                  IFRAME
         0         0                   0                                       0
#---1----|----2----|----3----|----4----|----5----|----6----|----7----|----8----|----9----|---10----|
/DEF_SHELL
#   ISHELL    ISMSTR    ITHICK     IPLAS   ISTRAIN                        I_SH3N     IDRIL
         0         0         0         0         1                             0         0
#---1----|----2----|----3----|----4----|----5----|----6----|----7----|----8----|----9----|---10----|
#-  2. MATERIALS:
#---1----|----2----|----3----|----4----|----5----|----6----|----7----|----8----|----9----|---10----|
/MAT/LAW14/1
test des directions d_orthotropie
#              RHO_I
               .0078                   0
#                E11                 E22                 E33
                  10                 100                   1
#               NU12                NU23                NU31
                   0                   0                   0
#                G12                 G23                 G31
                   0                   0                   0
#           SIGMA_T1            SIGMA_T2            SIGMA_T3               DELTA
              100000              100000              100000                   0
#                  B                   n                fmax
              100000              100000              100000
#          sigma_1yt           sigma_2yt           sigma_1yc           sigma_2yc
              100000              100000              100000              100000
#         sigma_12yt          sigma_12yc          sigma_23yt          sigma_23yc
              100000              100000              100000              100000
#              ALPHA                 E_f                   c          EPS_RATE_0       ICC
                   0                   0                   0                   0         0
#---1----|----2----|----3----|----4----|----5----|----6----|----7----|----8----|----9----|---10----|
#-  3. NODES:
#---1----|----2----|----3----|----4----|----5----|----6----|----7----|----8----|----9----|---10----|
/NODE
         1                   0                   0                   0
         2                 100                   0                   0
         3                 100                 100                   0
         4                   0                 100                   0
         5                   0                   0                 100
         6                 100                   0                 100
         7                 100                 100                 100
         8                   0                 100                 100
         9                   0                   0             100.001
        10                   0                   0                   0
        11                 100                   0                   0
        12                 100                 100                   0
        13                   0                 100                   0
        14                   0                   0                 100
        15                 100                   0                 100
        16                 100                 100                 100
        17                   0                 100                 100
        18                   0                   0             100.001
        19                   0                   0                   0
        20                 100                   0                   0
# ... 7 like lines cut
#---1----|----2----|----3----|----4----|----5----|----6----|----7----|----8----|----9----|---10----|
#-  4. BOUNDARY CONDITIONS:
#---1----|----2----|----3----|----4----|----5----|----6----|----7----|----8----|----9----|---10----|
/BCS/1
bas
#  Tra rot   skew_ID  grnod_ID
   001 000         0         2
/GRNOD/NODE/2
bas
         1         2         3         4
#---1----|----2----|----3----|----4----|----5----|----6----|----7----|----8----|----9----|---10----|
/BCS/2
bcs_haut
#  Tra rot   skew_ID  grnod_ID
   000 000         0         3
/GRNOD/NODE/3
bcs_haut
         5         6         7         8
#---1----|----2----|----3----|----4----|----5----|----6----|----7----|----8----|----9----|---10----|
/BCS/3
bas_2
#  Tra rot   skew_ID  grnod_ID
   001 000         0         4
/GRNOD/NODE/4
bas
        10        11        12        13
#---1----|----2----|----3----|----4----|----5----|----6----|----7----|----8----|----9----|---10----|
/BCS/4
bcs_haut_2
#  Tra rot   skew_ID  grnod_ID
   000 000         0         5
/GRNOD/NODE/5
bcs_haut
        14        15        16        17
#---1----|----2----|----3----|----4----|----5----|----6----|----7----|----8----|----9----|---10----|
/BCS/5
bas_3
#  Tra rot   skew_ID  grnod_ID
   001 000         0         6
/GRNOD/NODE/6
bas
        19        20        21        22
#---1----|----2----|----3----|----4----|----5----|----6----|----7----|----8----|----9----|---10----|
/BCS/6
bcs_haut_3
#  Tra rot   skew_ID  grnod_ID
   000 000         0         7
/GRNOD/NODE/7
bcs_haut
        23        24        25        26
#---1----|----2----|----3----|----4----|----5----|----6----|----7----|----8----|----9----|---10----|
#-  5. PARTS:
#---1----|----2----|----3----|----4----|----5----|----6----|----7----|----8----|----9----|---10----|
/PART/1
no_named_mat_1
         2         1         0
#---1----|----2----|----3----|----4----|----5----|----6----|----7----|----8----|----9----|---10----|
# BRICK elements of /PART/1/no_named_mat_1:
#---1----|----2----|----3----|----4----|----5----|----6----|----7----|----8----|----9----|---10----|
/BRICK/1
         1         1         2         3         4         5         6         7         8
#---1----|----2----|----3----|----4----|----5----|----6----|----7----|----8----|----9----|---10----|
/PART/2
no_named_mat_1
         4         1         0
#---1----|----2----|----3----|----4----|----5----|----6----|----7----|----8----|----9----|---10----|
# BRICK elements of /PART/2/no_named_mat_1:
#---1----|----2----|----3----|----4----|----5----|----6----|----7----|----8----|----9----|---10----|
/BRICK/2
         2        10        11        12        13        14        15        16        17
#---1----|----2----|----3----|----4----|----5----|----6----|----7----|----8----|----9----|---10----|
/PART/3
no_named_mat_1
         6         1         0
#---1----|----2----|----3----|----4----|----5----|----6----|----7----|----8----|----9----|---10----|
# BRICK elements of /PART/3/no_named_mat_1:
#---1----|----2----|----3----|----4----|----5----|----6----|----7----|----8----|----9----|---10----|
/BRICK/3
         3        20        24        25        21        19        23        26        22
#---1----|----2----|----3----|----4----|----5----|----6----|----7----|----8----|----9----|---10----|
#-  6. GEOMETRICAL SETS:
#---1----|----2----|----3----|----4----|----5----|----6----|----7----|----8----|----9----|---10----|
/PROP/TYPE6/2
no_named_mat_1
#   Isolid    Ismstr               Icpre               Inpts              Iframe                  dn
         0         0                   0                   0                   0                   0
#                q_a                 q_b                   h
                   0                   0                   0
#                 Vx                  Vy                  Vz   skew_ID        Ip     Iorth
                   0                   0                   0         0         1         0
#                phi
                   0
#             dt_min   Istrain      Ihkt
                   0         0         0
#---1----|----2----|----3----|----4----|----5----|----6----|----7----|----8----|----9----|---10----|
/PROP/TYPE6/4
no_named_mat_1
#   Isolid    Ismstr               Icpre               Inpts              Iframe                  dn
         0         0                   0                   0                   0                   0
#                q_a                 q_b                   h
                   0                   0                   0
#                 Vx                  Vy                  Vz   skew_ID        Ip     Iorth
                   0                   0                   0         0         2         0
#                phi
                   0
#             dt_min   Istrain      Ihkt
                   0         0         0
#---1----|----2----|----3----|----4----|----5----|----6----|----7----|----8----|----9----|---10----|
/PROP/TYPE6/6
no_named_mat_1
#   Isolid    Ismstr               Icpre               Inpts              Iframe                  dn
         0         0                   0                   0                   0                   0
#                q_a                 q_b                   h
                   0                   0                   0
#                 Vx                  Vy                  Vz   skew_ID        Ip     Iorth
                   0                   0                   0         0         3         0
#                phi
                   0
#             dt_min   Istrain      Ihkt
                   0         0         0
#---1----|----2----|----3----|----4----|----5----|----6----|----7----|----8----|----9----|---10----|
#-  7. FUNCTIONS:
#---1----|----2----|----3----|----4----|----5----|----6----|----7----|----8----|----9----|---10----|
/FUNCT/1
cst
#                  X                   Y
                   0                   1
               10000                   1
#---1----|----2----|----3----|----4----|----5----|----6----|----7----|----8----|----9----|---10----|
/FUNCT/2
cst
#                  X                   Y
                   0                   1
               10000                   1
#---1----|----2----|----3----|----4----|----5----|----6----|----7----|----8----|----9----|---10----|
/FUNCT/3
cst
#                  X                   Y
                   0                   1
               10000                   1
#---1----|----2----|----3----|----4----|----5----|----6----|----7----|----8----|----9----|---10----|
#-  8. IMPOSED VELOCITIES:
#---1----|----2----|----3----|----4----|----5----|----6----|----7----|----8----|----9----|---10----|
/IMPVEL/1
cst
#funct_IDT       Dir   skew_ID sensor_ID  grnod_ID  frame_ID     Icoor
         1         Z         0         0         8         0         0
#           Ascale_x            Fscale_Y              Tstart               Tstop
                   0               -.001                   0                   0
/GRNOD/NODE/8
cst
         5         6         7         8
#---1----|----2----|----3----|----4----|----5----|----6----|----7----|----8----|----9----|---10----|
/IMPVEL/2
cst_2
#funct_IDT       Dir   skew_ID sensor_ID  grnod_ID  frame_ID     Icoor
         2         Z         0         0         9         0         0
#           Ascale_x            Fscale_Y              Tstart               Tstop
                   0               -.001                   0                   0
/GRNOD/NODE/9
cst
        14        15        16        17
#---1----|----2----|----3----|----4----|----5----|----6----|----7----|----8----|----9----|---10----|
/IMPVEL/3
cst_3
#funct_IDT       Dir   skew_ID sensor_ID  grnod_ID  frame_ID     Icoor
         3         Z         0         0        10         0         0
#           Ascale_x            Fscale_Y              Tstart               Tstop
                   0               -.001                   0                   0
/GRNOD/NODE/10
cst
        23        24        25        26
#---1----|----2----|----3----|----4----|----5----|----6----|----7----|----8----|----9----|---10----|
#-  9. TIME HISTORIES:
#---1----|----2----|----3----|----4----|----5----|----6----|----7----|----8----|----9----|---10----|
/TH/NODE/1
th_nodes
#     var1      var2      var3      var4      var5      var6      var7      var8      var9     var10
DEF       
#    NODid     Iskew                                           NODname
         5         0                                                                                
        14         0                                                                                
        23         0                                                                                
#---1----|----2----|----3----|----4----|----5----|----6----|----7----|----8----|----9----|---10----|
/TH/BRIC/6
th_3Dsolid
#     var1      var2      var3      var4      var5      var6      var7      var8      var9     var10
DEF       
#     Elid                                                      Elname
         1          b1                                                                              
         2          b2                                                                              
         3          b3                                                                              
#---1----|----2----|----3----|----4----|----5----|----6----|----7----|----8----|----9----|---10----|
/END
#---1----|----2----|----3----|----4----|----5----|----6----|----7----|----8----|----9----|---10----|
