#RADIOSS STARTER
#--------------------------------------------------------------------------------------------------|
#- RADIOSS DECK / GENERATED BY HELIOSS 3.2.d3
#-
#- DATE	Thu Mar  2 09:46:45 2006
#--------------------------------------------------------------------------------------------------|
/BEGIN
RBPLI                                                                     
       110         0
                  kg                  mm                  ms
                  kg                  mm                  ms
#---1----|----2----|----3----|----4----|----5----|----6----|----7----|----8----|----9----|---10----|
#-  1. CONTROL CARDS:
#---1----|----2----|----3----|----4----|----5----|----6----|----7----|----8----|----9----|---10----|
/TITLE
UNKNOW
/MEMORY
#   MEMORY                         REAL%
     10000                             0
/SPMD
#   DOMDEC      SPMD              DECMOT
         0         0                   0
/IOFLAG
#     IPRI     IRTYP     IGTYP     IOUTP    IOUTYY   IROOTYY
         0         0         0         0         0         0
/ANALY
#    N2D3D     INTEG   IPARITH      ISUB
         0         0         0         0
/DEF_SOLID
#  B_HOURG   B_SSTRN                                                      Iframe
         0         0                                                           0
/DEF_SHELL
#  S_HOURG   S_SSTRN   S_THICK   S_PLAST    S_STRN    I_SH3N
         0         0         0         0         0         0
/REFSTA
# RSFILE 
REFSTA_file
#    NITRS    RS0FMT
         0         0
#---1----|----2----|----3----|----4----|----5----|----6----|----7----|----8----|----9----|---10----|
#-  2. MATERIALS:
#---1----|----2----|----3----|----4----|----5----|----6----|----7----|----8----|----9----|---10----|
/MAT/FABR_A/1
Fabric
#        Init. dens.          Ref. dens.
                8E-7                   0
#                 E1                  B1                  E2                  B2                FLEX
                 .38                   0                 .38                   0                0.01
#                 G0                  GT              AlphaT
                .095                .190                  45
#                 Df                  Ds                                    Arel          ZeroStress
                 .05                   0                                       0                   1
#       N1        N2                  S1                  S2
         1         1                  .1                  .1
/LEAK/MAT/1
Fabric
#    Ileak             AscaleT             AscaleP
         1
#                AC' fct_IDAC’

#                 LC                  AC
                 1.0                 1.0
#---1----|----2----|----3----|----4----|----5----|----6----|----7----|----8----|----9----|---10----|
#-  3. NODES:
#---1----|----2----|----3----|----4----|----5----|----6----|----7----|----8----|----9----|---10----|
/NODE
         1                   0                   0                   0
         2                  20                  20                -1.5
         3                  20                  20                 1.5
         4                 200                   0                  12
         5                 180                  20                10.5
         6                 180                  20                13.5
         7                 200                 200                  12
         8                 180                 180                10.5
         9                 180                 180                13.5
        10                   0                 200                   0
        11                  20                 180                -1.5
        12                  20                 180                 1.5
        13          193.333333                   0                   3
        14                 200                  20                   3
        15          186.666667                  20                   3
        16          193.333333                 200                   3
        17                 200                 180                   3
        18          186.666667                 180                   3
        19                 180                   0                   0
        20                 180                  20                -1.5
# ... 582 like lines cut
#---1----|----2----|----3----|----4----|----5----|----6----|----7----|----8----|----9----|---10----|
#-  4. BOUNDARY CONDITIONS:
#---1----|----2----|----3----|----4----|----5----|----6----|----7----|----8----|----9----|---10----|
/BCS/2
New BCS 2
#   trarot   Skew_id   Gnod_id
   111 000         0        14
/GRNOD/GRNOD/14
New GRNOD 14
        16
/GRNOD/GRNOD/16
New GRNOD 14 _nodes_subgroup_
        15
/GRNOD/NODE/15
New GRNOD 14 _nodes_subsubgroup_
         2        11        49        50        51        52        53        54        55        56
        57        67        68        69        70        71        72        73
#---1----|----2----|----3----|----4----|----5----|----6----|----7----|----8----|----9----|---10----|
#-  5. PARTS:
#---1----|----2----|----3----|----4----|----5----|----6----|----7----|----8----|----9----|---10----|
/PART/1
chambre3_haut
         1         1         3
#---1----|----2----|----3----|----4----|----5----|----6----|----7----|----8----|----9----|---10----|
# SH3N elements of /PART/1/chambre3_haut:
#---1----|----2----|----3----|----4----|----5----|----6----|----7----|----8----|----9----|---10----|
/SH3N/1
       162        66         7         9                                                           0
       181         9         7       189                                                           0
#---1----|----2----|----3----|----4----|----5----|----6----|----7----|----8----|----9----|---10----|
# SHELL elements of /PART/1/chambre3_haut:
#---1----|----2----|----3----|----4----|----5----|----6----|----7----|----8----|----9----|---10----|
/SHELL/1
         1        45       182       309       308                                                 0
         2       182       183       310       309                                                 0
         3       183       184       311       310                                                 0
         4       184       185       312       311                                                 0
         5       185       186       313       312                                                 0
         6       186       187       314       313                                                 0
         7       187       188       315       314                                                 0
         8       188         6        88       315                                                 0
         9       308       309       316       307                                                 0
        10       309       310       317       316                                                 0
        11       310       311       318       317                                                 0
        12       311       312       319       318                                                 0
        13       312       313       320       319                                                 0
        14       313       314       321       320                                                 0
        15       314       315       322       321                                                 0
        16       315        88        89       322                                                 0
        17       307       316       323       306                                                 0
        18       316       317       324       323                                                 0
        19       317       318       325       324                                                 0
        20       318       319       326       325                                                 0
# ... 79 like lines cut
#---1----|----2----|----3----|----4----|----5----|----6----|----7----|----8----|----9----|---10----|
/PART/2
chambre1_bas
         2         1         3
#---1----|----2----|----3----|----4----|----5----|----6----|----7----|----8----|----9----|---10----|
# SH3N elements of /PART/2/chambre1_bas:
#---1----|----2----|----3----|----4----|----5----|----6----|----7----|----8----|----9----|---10----|
/SH3N/2
       584        95         1         2                                                           0
       604         2         1        57                                                           0
       625        49        11        73                                                           0
       626        49        73        50                                                           0
       627        50        73        72                                                           0
       628        50        72        51                                                           0
       629        51        72        71                                                           0
       630        51        71        52                                                           0
       631        52        71        70                                                           0
       632        52        70        53                                                           0
       633        53        70        69                                                           0
       634        53        69        54                                                           0
       635        54        69        68                                                           0
       636        54        68        55                                                           0
       637        55        68        67                                                           0
       638        55        67        56                                                           0
       639        56        67         2                                                           0
       640        56         2        57                                                           0
#---1----|----2----|----3----|----4----|----5----|----6----|----7----|----8----|----9----|---10----|
# SHELL elements of /PART/2/chambre1_bas:
#---1----|----2----|----3----|----4----|----5----|----6----|----7----|----8----|----9----|---10----|
/SHELL/2
       502        23        17       123       159                                                 0
       503       159       123       122       158                                                 0
       504       158       122       121       157                                                 0
       505       157       121       120       156                                                 0
       506       156       120       119       155                                                 0
       507       155       119       118       154                                                 0
       508       154       118       117       153                                                 0
       509       117        14        20       153                                                 0
       510        23       159       554       145                                                 0
       511       159       158       555       554                                                 0
       512       158       157       556       555                                                 0
       513       157       156       557       556                                                 0
       514       156       155       558       557                                                 0
       515       155       154       559       558                                                 0
       516       154       153       560       559                                                 0
       517       153        20       103       560                                                 0
       518       145       554       561       144                                                 0
       519       554       555       562       561                                                 0
       520       555       556       563       562                                                 0
       521       556       557       564       563                                                 0
# ... 71 like lines cut
#---1----|----2----|----3----|----4----|----5----|----6----|----7----|----8----|----9----|---10----|
/PART/4
chambre1_haut
         3         1         3
#---1----|----2----|----3----|----4----|----5----|----6----|----7----|----8----|----9----|---10----|
# SH3N elements of /PART/4/chambre1_haut:
#---1----|----2----|----3----|----4----|----5----|----6----|----7----|----8----|----9----|---10----|
/SH3N/4
       473         3         1        95                                                           0
       493        57         1         3                                                           0
#---1----|----2----|----3----|----4----|----5----|----6----|----7----|----8----|----9----|---10----|
# SHELL elements of /PART/4/chambre1_haut:
#---1----|----2----|----3----|----4----|----5----|----6----|----7----|----8----|----9----|---10----|
/SHELL/4
       391        21        15       138       166                                                 0
       392       166       138       137       165                                                 0
       393       165       137       136       164                                                 0
       394       164       136       135       163                                                 0
       395       163       135       134       162                                                 0
       396       162       134       133       161                                                 0
       397       161       133       132       160                                                 0
       398       132        18        24       160                                                 0
       399        12        81       505       152                                                 0
       400        81        82       506       505                                                 0
       401        82        83       507       506                                                 0
       402        83        84       508       507                                                 0
       403        84        85       509       508                                                 0
       404        85        86       510       509                                                 0
       405        86        87       511       510                                                 0
       406        87         3       110       511                                                 0
       407       152       505       512       151                                                 0
       408       505       506       513       512                                                 0
       409       506       507       514       513                                                 0
       410       507       508       515       514                                                 0
# ... 79 like lines cut
#---1----|----2----|----3----|----4----|----5----|----6----|----7----|----8----|----9----|---10----|
/PART/5
chambre2_bas
         4         1         3
#---1----|----2----|----3----|----4----|----5----|----6----|----7----|----8----|----9----|---10----|
# SHELL elements of /PART/5/chambre2_bas:
#---1----|----2----|----3----|----4----|----5----|----6----|----7----|----8----|----9----|---10----|
/SHELL/5
        73        39        33       266       294                                                 0
        74       294       266       265       293                                                 0
        75       293       265       264       292                                                 0
        76       292       264       263       291                                                 0
        77       291       263       262       290                                                 0
        78       290       262       261       289                                                 0
        79       289       261       260       288                                                 0
        80       260        36        42       288                                                 0
        81        30       218       358       280                                                 0
        82       218       219       359       358                                                 0
        83       219       220       360       359                                                 0
        84       220       221       361       360                                                 0
        85       221       222       362       361                                                 0
        86       222       223       363       362                                                 0
        87       223       224       364       363                                                 0
        88       224        27       239       364                                                 0
        89       280       358       365       279                                                 0
        90       358       359       366       365                                                 0
        91       359       360       367       366                                                 0
        92       360       361       368       367                                                 0
# ... 80 like lines cut
#---1----|----2----|----3----|----4----|----5----|----6----|----7----|----8----|----9----|---10----|
/PART/6
chambre2_haut
         5         1         3
#---1----|----2----|----3----|----4----|----5----|----6----|----7----|----8----|----9----|---10----|
# SHELL elements of /PART/6/chambre2_haut:
#---1----|----2----|----3----|----4----|----5----|----6----|----7----|----8----|----9----|---10----|
/SHELL/6
       264        41        35       252       287                                                 0
       265       287       252       251       286                                                 0
       266       286       251       250       285                                                 0
       267       285       250       249       284                                                 0
       268       284       249       248       283                                                 0
       269       283       248       247       282                                                 0
       270       282       247       246       281                                                 0
       271       246        32        38       281                                                 0
       272        41       287       456       273                                                 0
       273       287       286       457       456                                                 0
       274       286       285       458       457                                                 0
       275       285       284       459       458                                                 0
       276       284       283       460       459                                                 0
       277       283       282       461       460                                                 0
       278       282       281       462       461                                                 0
       279       281        38       232       462                                                 0
       280       273       456       463       272                                                 0
       281       456       457       464       463                                                 0
       282       457       458       465       464                                                 0
       283       458       459       466       465                                                 0
# ... 80 like lines cut
#---1----|----2----|----3----|----4----|----5----|----6----|----7----|----8----|----9----|---10----|
/PART/7
chambre3_bas
         6         1         3
#---1----|----2----|----3----|----4----|----5----|----6----|----7----|----8----|----9----|---10----|
# SH3N elements of /PART/7/chambre3_bas:
#---1----|----2----|----3----|----4----|----5----|----6----|----7----|----8----|----9----|---10----|
/SH3N/7
       353         8         7        66                                                           0
       372       189         7         8                                                           0
#---1----|----2----|----3----|----4----|----5----|----6----|----7----|----8----|----9----|---10----|
# SHELL elements of /PART/7/chambre3_bas:
#---1----|----2----|----3----|----4----|----5----|----6----|----7----|----8----|----9----|---10----|
/SHELL/7
       192        47       197       407       301                                                 0
       193       197       198       408       407                                                 0
       194       198       199       409       408                                                 0
       195       199       200       410       409                                                 0
       196       200       201       411       410                                                 0
       197       201       202       412       411                                                 0
       198       202       203       413       412                                                 0
       199       203         8        74       413                                                 0
       200       301       407       414       300                                                 0
       201       407       408       415       414                                                 0
       202       408       409       416       415                                                 0
       203       409       410       417       416                                                 0
       204       410       411       418       417                                                 0
       205       411       412       419       418                                                 0
       206       412       413       420       419                                                 0
       207       413        74        75       420                                                 0
       208       300       414       421       299                                                 0
       209       414       415       422       421                                                 0
       210       415       416       423       422                                                 0
       211       416       417       424       423                                                 0
# ... 79 like lines cut
#---1----|----2----|----3----|----4----|----5----|----6----|----7----|----8----|----9----|---10----|
#-  6. SUBSETS:
#---1----|----2----|----3----|----4----|----5----|----6----|----7----|----8----|----9----|---10----|
/SUBSET/3
Airbag
#---1----|----2----|----3----|----4----|----5----|----6----|----7----|----8----|----9----|---10----|
#-  7. GEOMETRICAL SETS:
#---1----|----2----|----3----|----4----|----5----|----6----|----7----|----8----|----9----|---10----|
/PROP/SH_FABR/1
Fabric
#   Ishell    Ismstr
         4         4
#                 hm                  hf                  hr                  dm
                   0                   0                   0                   0
#        N   Istrain               Thick              Ashear              Ithick
         1         0                  .3                   0                   0
#                 Vx                  Vy                  Vz       Isk      Ipos
                   1                   0                   0         0         0
#                Phi               Alpha               Thick                   Z       Mat
                   0                   0                  .3                   0         1          
/PROP/SH_FABR/2
Fabric
#   Ishell    Ismstr
         4         4
#                 hm                  hf                  hr                  dm
                   0                   0                   0                   0
#        N   Istrain               Thick              Ashear              Ithick
         1         0                  .3                   0                   0
#                 Vx                  Vy                  Vz       Isk      Ipos
                   1                   0                   0         0         0
#                Phi               Alpha               Thick                   Z       Mat
                   0                   0                  .3                   0         1          
/PROP/SH_FABR/3
Fabric
#   Ishell    Ismstr
         4         4
#                 hm                  hf                  hr                  dm
                   0                   0                   0                   0
#        N   Istrain               Thick              Ashear              Ithick
         1         0                  .3                   0                   0
#                 Vx                  Vy                  Vz       Isk      Ipos
                   1                   0                   0         0         0
#                Phi               Alpha               Thick                   Z       Mat
                   0                   0                  .3                   0         1          
/PROP/SH_FABR/4
Fabric
#   Ishell    Ismstr
         4         4
#                 hm                  hf                  hr                  dm
                   0                   0                   0                   0
#        N   Istrain               Thick              Ashear              Ithick
         1         0                  .3                   0                   0
#                 Vx                  Vy                  Vz       Isk      Ipos
                   1                   0                   0         0         0
#                Phi               Alpha               Thick                   Z       Mat
                   0                   0                  .3                   0         1          
/PROP/SH_FABR/5
Fabric
#   Ishell    Ismstr
         4         4
#                 hm                  hf                  hr                  dm
                   0                   0                   0                   0
#        N   Istrain               Thick              Ashear              Ithick
         1         0                  .3                   0                   0
#                 Vx                  Vy                  Vz       Isk      Ipos
                   1                   0                   0         0         0
#                Phi               Alpha               Thick                   Z       Mat
                   0                   0                  .3                   0         1          
/PROP/SH_FABR/6
Fabric
#   Ishell    Ismstr
         4         4
#                 hm                  hf                  hr                  dm
                   0                   0                   0                   0
#        N   Istrain               Thick              Ashear              Ithick
         1         0                  .3                   0                   0
#                 Vx                  Vy                  Vz       Isk      Ipos
                   1                   0                   0         0         0
#                Phi               Alpha               Thick                   Z       Mat
                   0                   0                  .3                   0         1          
#---1----|----2----|----3----|----4----|----5----|----6----|----7----|----8----|----9----|---10----|
#-  8. FUNCTIONS:
#---1----|----2----|----3----|----4----|----5----|----6----|----7----|----8----|----9----|---10----|
/FUNCT/1
Mass Flow
#                  X                   Y
                   0                   0                                                            
                 3.5              6.8E-4                                                            
                 6.2              .00448                                                            
                 8.3              .00872                                                            
                 9.4               .0111                                                            
                10.4               .0132                                                            
                12.2               .0169                                                            
                15.3               .0223                                                            
                16.3               .0238                                                            
                19.4               .0277                                                            
                24.3               .0316                                                            
                25.5               .0323                                                            
                26.2               .0327                                                            
                32.2               .0346                                                            
                34.3                .035                                                            
                36.2               .0352                                                            
                39.5               .0355                                                            
                41.2               .0356                                                            
                42.1               .0356                                                            
                43.2               .0356                                                            
                 100               .0356                                                            
#---1----|----2----|----3----|----4----|----5----|----6----|----7----|----8----|----9----|---10----|
/FUNCT/2
Temperature
#                  X                   Y
                   0                 750                                                            
                 100                 750                                                            
#---1----|----2----|----3----|----4----|----5----|----6----|----7----|----8----|----9----|---10----|
#-  9. INTERFACES:
#---1----|----2----|----3----|----4----|----5----|----6----|----7----|----8----|----9----|---10----|
/INTER/TYPE7/3
New INTER 3
#  Slav_id   Mast_id      Istf      Ithe      Igap     Multi      Ibag      Idel     Icurv      Iadm
        32         4         0         0         0        16         0         0         0         0
#          GAP_SCALE             GAP_MAX
                   0                   0
#              STMIN               STMAX
                   0                   0
#              STFAC                FRIC             GAP_MIN              Tstart               Tstop
                   0                   0                   2                   0                   0
#     I_BC                        INACTI               VIS_S               VIS_F              BUMULT
       000                             5                   0                   0                   0
#    Ifric    Ifiltr               Xfreq     Iform
         0         0                   0         0
/GRNOD/SURF/32
INTER_group_32_of_SURF
         4
#---1----|----2----|----3----|----4----|----5----|----6----|----7----|----8----|----9----|---10----|
/INTER/TYPE11/4
New INTER 4
#  Slav_id   Mast_id     I_stf               I_gap   Multimp                Idel
        33        33         0                   0        48                   0
#              Stmin               Stmax          %mesh_size               dtmin     Iform   Sens_Id

#              STFAC                FRIC                 GAP              Tstart               Tstop
                   0                   0                   2                   0                   0
#     I_BC                        INACTI               VIS_S               VIS_F              BUMULT
       000                             0                   0                   0                   0
/LINE/SURF/33
INTER_group_33_of_LINE
         4
#---1----|----2----|----3----|----4----|----5----|----6----|----7----|----8----|----9----|---10----|
#- 10. RIGID WALLS:
#---1----|----2----|----3----|----4----|----5----|----6----|----7----|----8----|----9----|---10----|
/RWALL/PLANE/1
New RWALL 1
#        N     SLIDE   gr_nod1   gr_nod2
                   0        12        14
#           Distance            Friction            Diameter                Ffac       Ifq
                   0                   0                   0                   0         0
#                 Xm                  Ym                  Zm
                 100                 100                -1.5
#                Xm1                 Ym1                 Zm1
                 100                 100                 1.5
/GRNOD/NODE/12
New GRNOD 11 _nodes_subsubgroup_
         1         2         3         4         5         6         7         8         9        10
        11        12        13        14        15        16        17        18        19        20
        21        22        23        24        25        26        27        28        29        30
        31        32        33        34        35        36        37        38        39        40
        41        42        43        44        45        46        47        48        49        50
        51        52        53        54        55        56        57        58        59        60
        61        62        63        64        65        66        67        68        69        70
        71        72        73        74        75        76        77        78        79        80
        81        82        83        84        85        86        87        88        89        90
        91        92        93        94        95        96        97        98        99       100
       101       102       103       104       105       106       107       108       109       110
       111       112       113       114       115       116       117       118       119       120
       121       122       123       124       125       126       127       128       129       130
       131       132       133       134       135       136       137       138       139       140
       141       142       143       144       145       146       147       148       149       150
       151       152       153       154       155       156       157       158       159       160
       161       162       163       164       165       166       167       168       169       170
       171       172       173       174       175       176       177       178       179       180
       181       182       183       184       185       186       187       188       189       190
       191       192       193       194       195       196       197       198       199       200
# ... 41 like lines cut
#---1----|----2----|----3----|----4----|----5----|----6----|----7----|----8----|----9----|---10----|
/MAT/GAS/PREDEF/4
Initial gaz
AIR
#---1----|----2----|----3----|----4----|----5----|----6----|----7----|----8----|----9----|---10----|
/MAT/GAS/PREDEF/5
Nitrogen
N2
#---1----|----2----|----3----|----4----|----5----|----6----|----7----|----8----|----9----|---10----|
/MAT/GAS/PREDEF/6
Carbon dioxide
CO2
#---1----|----2----|----3----|----4----|----5----|----6----|----7----|----8----|----9----|---10----|
/MAT/GAS/PREDEF/7
Water
H2O
#---1----|----2----|----3----|----4----|----5----|----6----|----7----|----8----|----9----|---10----|
/MAT/GAS/PREDEF/8
Hydrogen
H2
#---1----|----2----|----3----|----4----|----5----|----6----|----7----|----8----|----9----|---10----|
/PROP/INJECT2/10
Injector
#   Ngases     Iflow
         5         0
#    Imass     Itemp              Scal_M              Scal_T             Ascal_t
         1         2                 .15                   0                   0
#   Mat_ID                Molar_fraction  Funct_ID
         4                        0.1000         0
         5                        0.5000         0
         6                        0.2500         0
         7                        0.1000         0
         8                        0.0500         0
#---1----|----2----|----3----|----4----|----5----|----6----|----7----|----8----|----9----|---10----|
/MONVOL/AIRBAG1/1
DAB
#     Isur
         4
#             Scal_T              Scal_P              Scal_S              Scal_A              Scal_D
                   0                   0                   0                   0                   0
#   Mat_ID                            Mu                Pext                Tphi     Iequi
         4                           0.1          0.00010135                   0         0
#     Njet
         1
#   Inj_ID   Isensor      Ijet        N1        N2        N3
        10         1         0         0         0         0
#    Nvent       Nps
         0         1
#Sur_id_ps  Iform_ps
         4         1
#             Tstart               Tstop               dPdef              DtPdef             ldtpdef       

/SURF/PART/4
DAB
         1         2         4         5         6         7
#---1----|----2----|----3----|----4----|----5----|----6----|----7----|----8----|----9----|---10----|
/SENSOR/TIME/1
Airbag fire time
                 0.0
#---1----|----2----|----3----|----4----|----5----|----6----|----7----|----8----|----9----|---10----|
#- 11. TIME HISTORIES:
#---1----|----2----|----3----|----4----|----5----|----6----|----7----|----8----|----9----|---10----|
/TH/MONV/1
Airbags
#     var1      var2      var3      var4      var5      var6      var7      var8      var9     var10
DEF       
#     Obj1      Obj2      Obj3      Obj4      Obj5      Obj6      Obj7      Obj8      Obj9     Obj10
         1
#---1----|----2----|----3----|----4----|----5----|----6----|----7----|----8----|----9----|---10----|
#include qadiags.inc
/END
#---1----|----2----|----3----|----4----|----5----|----6----|----7----|----8----|----9----|---10----|
