#RADIOSS STARTER                                                                                                                            
# Copyright (C) 2022 Altair Engineering Inc. ("Holder")
# Model is licensed by Holder under CC BY-NC 4.0
# (https://creativecommons.org/licenses/by-nc/4.0/legalcode).
/BEGIN                                                                                                                                      
FFO25SCB                          
     110       0                                                                                                                            
                  kg                   m                   s                                                                                
                  kg                   m                   s                                                                                
/TITLE                                                                                                                                      
                                                                                                                                            
/MEMORY                                                                                                                                     
         0                             0                                                                                                    
/SPMD                                                                                                                                       
         0         0                   0                                                                                                    
/IOFLAG                                                                                                                                     
         2         0         0         0         0         0                                       0                                        
/ANALY                                                                                                                                      
         0         0         0         0                                                                                                    
/DEF_SOLID                                                                                                                                  
         0         0                                                           0                                                            
/DEF_SHELL                                                                                                                                  
         4         0         0         0         0                             1                                                            
/SHFRA/V4                                                                                                                                   
/RANDOM                                                                                                                                     
                   0 
/DAMP/         1
damping                                                                                                                                     
  0.000000000000     1.6000000000000E-03         1         0  0.000000000000      0.500000000000                                                                                                                             
/GRNOD/PART    /         1
parts                                                                                                                                       
         1         2         0         0         0         0         0         0         0         0
/MAT/COMPSH  /         1
UD T300-914  referenced material from property                                                                                              
              .00103                   0                                                                                                    
              131563               10581                .345         1                                                                      
                5466                5466                5466                   0                   0                                        
                   0                   0                   0                   0                   0                                        
                1E30                   1         6                                                                                          
               1E-30                1E-6                   1                                       3                                        
                1668                   0                   1                1E30                   0                                        
                   0                   0                   0                   0                                                            
                  55                   0                   1                1E30                   0                                        
                   0                   0                   0                   0                                                            
                1045                   0                   1                1E30                   0                                        
                   0                   0                   0                   0                                                            
                 214                   0                   0                1E30                   0                                        
                   0                   0                   0                   0                                                            
                  20                   0                   1                1E30                   0                                        
                   0                   0                   0                   0                                                            
                   0                   0                   0                                                                                
         0                   0                                                                                                              
/MAT/COMPSH  /         2
UD T300-914  referenced material from property                                                                                              
              .00103                   0                                                                                                    
              131563               10581                .345         1                                                                      
                5466                5466                5466                   0                   0                                        
                .012               .0132               .0055                .006                .999                                        
                   6                   1         6                                                                                          
               1E-30                1E-6                   1                                       3                                        
                1668                   0                   1                1E30                   0                                        
                   0                   0                   0                   0                                                            
                  55                   0                   1                1E30                   0                                        
                   0                   0                   0                   0                                                            
                1045                   0                   1                1E30                   0                                        
                   0                   0                   0                   0                                                            
                 214                   0                   0                1E30                   0                                        
                .025                   0                   0                   0                                                            
                  20                 2.5                 .01                1E30                   0                                        
                   0                   0                   0                   0                                                            
                   0                   0                   0                                                                                
         0                   0                                                                                                              
/FAIL/CHANG   /         1
          267.000E+0          54.0000E+0                86.5               1e+30          213.000E+0                                        
                  1.               0.012         2                                                                                          
/NODE
         1  0.000000000000      0.000000000000      0.000000000000    
         2  0.000000000000      10.00000000000      0.000000000000    
         3  100.0000000000      0.000000000000      0.000000000000    
         4  100.0000000000      10.00000000000      0.000000000000    
        11  0.000000000000      0.000000000000      50.00000000000    
        12  0.000000000000      10.00000000000      50.00000000000    
        13  100.0000000000      0.000000000000      50.00000000000    
        14  100.0000000000      10.00000000000      50.00000000000    
        19  10.00000000000      0.000000000000      0.000000000000    
        20  20.00000000000      0.000000000000      0.000000000000    
        21  30.00000000000      0.000000000000      0.000000000000    
        22  40.00000000000      0.000000000000      0.000000000000    
        23  50.00000000000      0.000000000000      0.000000000000    
        24  60.00000000000      0.000000000000      0.000000000000    
        25  70.00000000000      0.000000000000      0.000000000000    
        26  80.00000000000      0.000000000000      0.000000000000    
        27  90.00000000000      0.000000000000      0.000000000000    
        28  10.00000000000      10.00000000000      0.000000000000    
        29  20.00000000000      10.00000000000      0.000000000000    
        30  30.00000000000      10.00000000000      0.000000000000    
# ... 30 like lines cut
/BCS/         1
rwc1                                                                                                                                        
   110 111         0         2
/GRNOD/NODE    /         2
GRNOD 2                                                                                                                                     
       210         0         0         0         0         0         0         0         0         0
/BCS/         2
rwg1                                                                                                                                        
   111 111         0         3
/GRNOD/NODE    /         3
GRNOD 3                                                                                                                                     
       211         0         0         0         0         0         0         0         0         0
/BCS/         3
rwg1                                                                                                                                        
   111 111         0         4
/GRNOD/NODE    /         4
GRNOD 4                                                                                                                                     
       212         0         0         0         0         0         0         0         0         0
/BCS/         4
rwc1                                                                                                                                        
   110 111         0         5
/GRNOD/NODE    /         5
GRNOD 5                                                                                                                                     
       213         0         0         0         0         0         0         0         0         0
/BCS/         5
rwg1                                                                                                                                        
   111 111         0         6
/GRNOD/NODE    /         6
GRNOD 6                                                                                                                                     
       214         0         0         0         0         0         0         0         0         0
/BCS/         6
rwg1                                                                                                                                        
   111 111         0         7
/GRNOD/NODE    /         7
GRNOD 7                                                                                                                                     
       215         0         0         0         0         0         0         0         0         0
/BCS/        10
sym3                                                                                                                                        
   100 011         0         8
/GRNOD/NODE    /         8
GRNOD 8                                                                                                                                     
        23        32       123       132         0         0         0         0         0         0
/PART/         1
SHL00001                                                                                                                                    
         1         1         0
/SHELL/         1
         1         1         2        28        19                                0.000000000000    
         2        19        28        29        20                                0.000000000000    
         3        20        29        30        21                                0.000000000000    
         4        21        30        31        22                                0.000000000000    
         5        22        31        32        23                                0.000000000000    
         6        23        32        33        24                                0.000000000000    
         7        24        33        34        25                                0.000000000000    
         8        25        34        35        26                                0.000000000000    
         9        26        35        36        27                                0.000000000000    
        10        27        36         4         3                                0.000000000000    
/PART/         2
SHL00002                                                                                                                                    
         2         2         0
/SHELL/         2
        11        11        12       128       119                                0.000000000000    
        12       119       128       129       120                                0.000000000000    
        13       120       129       130       121                                0.000000000000    
        14       121       130       131       122                                0.000000000000    
        15       122       131       132       123                                0.000000000000    
        16       123       132       133       124                                0.000000000000    
        17       124       133       134       125                                0.000000000000    
        18       125       134       135       126                                0.000000000000    
        19       126       135       136       127                                0.000000000000    
        20       127       136        14        13                                0.000000000000    
/PROP/SH_SANDW/         1
Part number 1                                                                                                                               
         0         0                                                                                                                        
                   0                   0                   0                   0                   0                                        
        15         0                1.95                   0                   0         0                                                  
  1.000000000000      0.000000000000      0.000000000000             0         1         0                                                  
  0.000000000000     0.1300000000000      0.000000000000             1                                                                      
  0.000000000000     0.1300000000000      0.000000000000             1                                                                      
  0.000000000000     0.1300000000000      0.000000000000             1                                                                      
  0.000000000000     0.1300000000000      0.000000000000             1                                                                      
  0.000000000000     0.1300000000000      0.000000000000             1                                                                      
  0.000000000000     0.1300000000000      0.000000000000             1                                                                      
  0.000000000000     0.1300000000000      0.000000000000             1                                                                      
  0.000000000000     0.1300000000000      0.000000000000             1                                                                      
  0.000000000000     0.1300000000000      0.000000000000             1                                                                      
  0.000000000000     0.1300000000000      0.000000000000             1                                                                      
  0.000000000000     0.1300000000000      0.000000000000             1                                                                      
  0.000000000000     0.1300000000000      0.000000000000             1                                                                      
  0.000000000000     0.1300000000000      0.000000000000             1                                                                      
  0.000000000000     0.1300000000000      0.000000000000             1                                                                      
  0.000000000000     0.1300000000000      0.000000000000             1                                                                      
/PROP/SH_SANDW/         2/
Part number 2                                                                                                                               
         0         0                                                                                                                        
                   0                   0                   0                   0                   0                                        
        15         0                1.95                   0                   0         0                                                  
  1.000000000000      0.000000000000      0.000000000000             0         1         0                                                  
  0.000000000000     0.1300000000000      0.000000000000             2                                                                      
  0.000000000000     0.1300000000000      0.000000000000             2                                                                      
  0.000000000000     0.1300000000000      0.000000000000             2                                                                      
  0.000000000000     0.1300000000000      0.000000000000             2                                                                      
  0.000000000000     0.1300000000000      0.000000000000             2                                                                      
  0.000000000000     0.1300000000000      0.000000000000             2                                                                      
  0.000000000000     0.1300000000000      0.000000000000             2                                                                      
  0.000000000000     0.1300000000000      0.000000000000             2                                                                      
  0.000000000000     0.1300000000000      0.000000000000             2                                                                      
  0.000000000000     0.1300000000000      0.000000000000             2                                                                      
  0.000000000000     0.1300000000000      0.000000000000             2                                                                      
  0.000000000000     0.1300000000000      0.000000000000             2                                                                      
  0.000000000000     0.1300000000000      0.000000000000             2                                                                      
  0.000000000000     0.1300000000000      0.000000000000             2                                                                      
  0.000000000000     0.1300000000000      0.000000000000             2                                                                      
/FUNCT/         1
f1                                                                                                                                          
                   0                   0                                                                                                    
                  10                 -.1                                                                                                    
               10000                 -.1                                                                                                    
/FUNCT/         2
f2                                                                                                                                          
                   0                   0                                                                                                    
                  10                  -0                                                                                                    
               10000                  -0                                                                                                    
/RWALL/CYL     /         1
rwc1                                                                                                                                        
       210         0         0         0
                  20                   0                  25                   0         0                                                  
                   0                   0                   0                   0                                                            
                  50                  10                12.5                                                                                
/RWALL/CYL     /         2
rwg1                                                                                                                                        
       211         0         0         0
                  15                  .1                  10                   0         0                                                  
                   0                   0                   0                   0                                                            
                  10                  10                  -5                                                                                
/RWALL/CYL     /         3
rwd1                                                                                                                                        
       212         0         0         0
                  15                  .1                  10                   0         0                                                  
                   0                   0                   0                   0                                                            
                  90                  10                  -5                                                                                
/RWALL/CYL     /         4
rwc2                                                                                                                                        
       213         0         0         0
                  20                   0                  25                   0         0                                                  
                   0                   0                   0                   0                                                            
                  50                  10                62.5                                                                                
/RWALL/CYL     /         5
rwg2                                                                                                                                        
       214         0         0         0
                  15                  .1                  10                   0         0                                                  
                   0                   0                   0                   0                                                            
                  10                  10                  45                                                                                
/RWALL/CYL     /         6
rwd2                                                                                                                                        
       215         0         0         0
                  15                  .1                  10                   0         0                                                  
                   0                   0                   0                   0                                                            
                  90                  10                  45                                                                                
/IMPVEL/         1/
rwc1                                                                                                                                        
         1         Z         0         0         9         0
                   1                   1                   0                   0                                                            
/GRNOD/NODE    /         9
GRNOD 9                                                                                                                                     
       210         0         0         0         0         0         0         0         0         0
/IMPVEL/         2/
rwc1                                                                                                                                        
         1         Z         0         0        10         0
                   1                   1                   0                   0                                                            
/GRNOD/NODE    /        10
GRNOD 10                                                                                                                                    
       213         0         0         0         0         0         0         0         0         0
/TH/NODE    /         1/         0
nodes                                                                                                                                       
DEF                                                                                                                                         
       210         0                                                                                                    
       213         0                                                                                                    
/TH/PART    /         2
Part selection                                                                                                                              
DEF                                                                                                                                         
         1         2         0         0         0         0         0         0         0         0
/TH/RWALL/3
1                                                                                                                                           
DEF                                                                                                                                         
         1         4         2         3         5         6
/TH/SHEL    /         4
Part_selection                                                                                                                              
DEF       E1        E2        K1        K2        SIG_1     SIG_15                                                                          
         5                                                                                                              
         6                                                                                                              
        15                                                                                                              
        16                                                                                                                                  
#include qadiags.inc
/END                                                                                                                                        
