#RADIOSS STARTER
# Copyright (C) 2023 Altair Engineering Inc. ("Holder")
# Model is licensed by Holder under CC BY-NC 4.0
# (https://creativecommons.org/licenses/by-nc/4.0/legalcode).
# Copyright (C) 2022 Altair Engineering Inc. ("Holder")
# Model is licensed by Holder under CC BY-NC 4.0
# (https://creativecommons.org/licenses/by-nc/4.0/legalcode).
/BEGIN/
44SLD8
      2017         0
    1.D0                1.D0                1.D0
    1.D0                1.D0                1.D0
/TITLE
     TEST 1 ELEMENT 3D
/MEMORY
         
/SPMD
      
/IOFLAG
         5         0         0         0         2         2                               0
/ANALY
                                         0
/DEF_SOLID
         0         0         2
/DEF_SHELL
         0         0         0         0         1         0         0         1
/MAT/COWPER/       2
PROPERTY FOR COWPER-SYMONDS
     0.780000000E-02      0.00000000
      2.05000000E+05          0.3
        180.0               450.0                 0.5                 1.0              300.0
        400.0                 5.0                  1         0       .000000000E00
       .000000000E00       .000000000E00       .000000000E00
/NODE
         1      .000000000          .000000000          .000000000
         2      100.000000          .000000000          .000000000
         3      100.000000          100.000000          .000000000
         4      .000000000          100.000000          .000000000
         5      .000000000          .000000000          100.000000
         6      100.000000          .000000000          100.000000
         7      100.000000          100.000000          100.000000
         8      .000000000          100.000000          100.000000
/TH/NODE/       1
 
DEF
         1         0 NODE        1
         2         0 NODE        2
         3         0 NODE        3
         4         0 NODE        4
         5         0 NODE        5
         6         0 NODE        6
         7         0 NODE        7
         8         0 NODE        8
/BCS/       1
bcs       1
     1             0         1
/GRNOD/NODE/       1
Node Group       1
         1         2         3         4
/GRNOD/NODE/       2
Node Group       2
         5         6         7         8
/BRICK/       1
         1         1         2         3         4         5         6         7         8
/TH/BRIC/2
 
DEF
         1          TH-BRICK:        1                                  
/PROP/SOLID/       1
 no_named_mat_1
        12         0         0         0         0         8        -1         1       0.00000000
     0.100000000E-19     0.100000000E-20  
      0.00000000
/PART/       1
Brick P       1 M       2
         1         2       0
/TH/PART/       3
 
DEF
         1
/FUNCT/       1
Function       1
      0.00000000          1.00000000
      10000.0000          1.00000000
/IMPVEL  /       1
Imposed Velocity       1
         1         Z         0         0         3         0
      1.00000000         -1.00000000          0.00000000          0.00000000
/GRNOD/NODE/       3
Node Group       3
         5         6         7         8
/ANIM/VERS
        36
/SHFRA/V4
/END
