#RADIOSS STARTER
# Copyright (C) 2024 Altair Engineering Inc. ("Holder")
# Model is licensed by Holder under CC BY-NC 4.0
# (https://creativecommons.org/licenses/by-nc/4.0/legalcode).
# Copyright (C) 2022 Altair Engineering Inc. ("Holder")
# Model is licensed by Holder under CC BY-NC 4.0
# (https://creativecommons.org/licenses/by-nc/4.0/legalcode).
#--------------------------------------------------------------------------------------------------|
#- RADIOSS DECK WRITTEN BY HyperCrash
#HyperCrash 11.0 402 (64 bits) 
#Tue Oct 23 17:42:43 2012
#-
#--------------------------------------------------------------------------------------------------|
#- RADIOSS DECK WRITTEN BY HyperCrash
#HyperCrash 11.0 402 (64 bits)
#Thu Sep 13 12:22:31 2012
#-
##========================================================================================
##
## Radioss Input Deck Generated by HyperMesh Version  : 11.0.0.120-HWDesktop
## Generated using HyperMesh-Radioss Template Version : HW11.0.120-HWDesktop
## Date: 09-13-2012   Time: 11:47:54
##
##========================================================================================
## ##--------------------------------------------------------------------------------------------------
#--------------------------------------------------------------------------------------------------|
#- RADIOSS DECK WRITTEN BY HyperCrash
#HyperCrash 11.0 402 (64 bits)
#Thu Sep 13 11:44:13 2012
#-
#-
#- DATE	Thu Sep 13 11:44:13 2012
#--------------------------------------------------------------------------------------------------|
#---1----|----2----|----3----|----4----|----5----|----6----|----7----|----8----|----9----|---10----|
#
#-
#- DATE	Thu Sep 13 12:22:31 2012
#--------------------------------------------------------------------------------------------------|
#---1----|----2----|----3----|----4----|----5----|----6----|----7----|----8----|----9----|---10----|
#
#-
#- DATE	Tue Oct 23 17:42:43 2012
#--------------------------------------------------------------------------------------------------|
#---1----|----2----|----3----|----4----|----5----|----6----|----7----|----8----|----9----|---10----|
/BEGIN
model                                                                           
       120         0
                  kg                  mm                  ms
                  kg                  mm                  ms
#---1----|----2----|----3----|----4----|----5----|----6----|----7----|----8----|----9----|---10----|
#-  1. CONTROL CARDS:
#---1----|----2----|----3----|----4----|----5----|----6----|----7----|----8----|----9----|---10----|
/TITLE

#---1----|----2----|----3----|----4----|----5----|----6----|----7----|----8----|----9----|---10----|
/DEF_SHELL
#   ISHELL    ISMSTR    ITHICK     IPLAS   ISTRAIN                        I_SH3N
         0         0         0         0         0                             0
#---1----|----2----|----3----|----4----|----5----|----6----|----7----|----8----|----9----|---10----|
/DEF_SOLID
#  I_SOLID    ISMSTR             ISTRAIN                                  IFRAME
         0         0                   0                                       0
#---1----|----2----|----3----|----4----|----5----|----6----|----7----|----8----|----9----|---10----|
/IOFLAG
#     IPRI     IRTYP     IGTYP     IOUTP    IOUTYY   IROOTYY                                 IRTYP_R
         0         0         0         0         0         0                                       0
#---1----|----2----|----3----|----4----|----5----|----6----|----7----|----8----|----9----|---10----|
/RANDOM/0
                   0                   0
/SPMD
#   DOMDEC     Nproc              Dkword
         0         0                   0
#---1----|----2----|----3----|----4----|----5----|----6----|----7----|----8----|----9----|---10----|
/ANALY
#    N2D3D             IPARITH      ISUB
         0                   0         0
#---1----|----2----|----3----|----4----|----5----|----6----|----7----|----8----|----9----|---10----|
#-  2. MATERIALS:
#---1----|----2----|----3----|----4----|----5----|----6----|----7----|----8----|----9----|---10----|
/MAT/FABRI/1
MAT_FABRIC_1
#        Init. dens.          Ref. dens.
            1.265E-6                   0
#                E11                 E22                NU12
                 .34                 .34                  .3
#                G12                 G23                 G31
    .130769230769231    .130769230769231    .130769230769231
#                R_E                              ZEROSTRESS
                 .01                                       0
#---1----|----2----|----3----|----4----|----5----|----6----|----7----|----8----|----9----|---10----|
#-  3. NODES:
#---1----|----2----|----3----|----4----|----5----|----6----|----7----|----8----|----9----|---10----|
/NODE
         9                   0                   0                  25
        10                   0                   0                  20
        11                   0                   0                  15
        12                   0                   0                  10
        13                   0                   0                   5
        14                   0                   0                   0
        15                   5                   0                   0
        16                  10                   0                   0
        17                  15                   0                   0
        18                  20                   0                   0
        19                  25                   0                   0
        20                  25                   0                   5
        21                  25                   0                  10
        22                  25                   0                  15
        23                  25                   0                  20
        24                  25                   0                  25
        25                  20                   0                  25
        26                  15                   0                  25
        27                  10                   0                  25
        28                   5                   0                  25
# ... 20 like lines cut
#---1----|----2----|----3----|----4----|----5----|----6----|----7----|----8----|----9----|---10----|
#-  4. BOUNDARY CONDITIONS:
#---1----|----2----|----3----|----4----|----5----|----6----|----7----|----8----|----9----|---10----|
/BCS/1
NULL
#   Trarot   skew_ID  grnod_ID
   101 111         0         8
/GRNOD/NODE/8
NULL.1
        54        55        56        57
#---1----|----2----|----3----|----4----|----5----|----6----|----7----|----8----|----9----|---10----|
/BCS/2
NULL.1
#   Trarot   skew_ID  grnod_ID
   111 111         0         5
/GRNOD/NODE/5
NULL
         9        10        11        12        13        14        15        16        17        18
        19        20        21        22        23        24        25        26        27        28
        29        30        31        32        33        34        35        36        37        38
        39        40        41        42        43        44
#---1----|----2----|----3----|----4----|----5----|----6----|----7----|----8----|----9----|---10----|
#-  5. PARTS:
#---1----|----2----|----3----|----4----|----5----|----6----|----7----|----8----|----9----|---10----|
/PART/1
wall
         2         1         0
#---1----|----2----|----3----|----4----|----5----|----6----|----7----|----8----|----9----|---10----|
# SHELL elements of /PART/1/wall:
#---1----|----2----|----3----|----4----|----5----|----6----|----7----|----8----|----9----|---10----|
/SHELL/1
         1        30        33        34        29                                                 0
         2        29        34        20        21                                                 0
         3        33        17        18        34                                                 0
         4        34        18        19        20                                                 0
         5        31        35        33        30                                                 0
         6        35        16        17        33                                                 0
         7        12        13        36        32                                                 0
         8        32        36        35        31                                                 0
         9        13        14        15        36                                                 0
        10        36        15        16        35                                                 0
        11        26        37        39        25                                                 0
        12        25        39        23        24                                                 0
        13        29        40        38        30                                                 0
        14        40        39        37        38                                                 0
        15        21        22        40        29                                                 0
        16        22        23        39        40                                                 0
        17         9        10        41        28                                                 0
        18        28        41        42        27                                                 0
        19        27        42        37        26                                                 0
        20        32        43        11        12                                                 0
# ... 5 like lines cut
#---1----|----2----|----3----|----4----|----5----|----6----|----7----|----8----|----9----|---10----|
/PART/2
stempel
         3         1         0
#---1----|----2----|----3----|----4----|----5----|----6----|----7----|----8----|----9----|---10----|
# SHELL elements of /PART/2/stempel:
#---1----|----2----|----3----|----4----|----5----|----6----|----7----|----8----|----9----|---10----|
/SHELL/2
        28        54        55        56        57                                                 0
#---1----|----2----|----3----|----4----|----5----|----6----|----7----|----8----|----9----|---10----|
#-  6. GEOMETRICAL SETS:
#---1----|----2----|----3----|----4----|----5----|----6----|----7----|----8----|----9----|---10----|
/PROP/SH_ORTH/2
SECTION_SHELL_1
#   Ishell    Ismstr     Ish3n
         4         1         0
#                 hm                  hf                  hr                  dm                  dn
                   0                   0                   0                   0                   0
#        N   Istrain               Thick              Ashear              Ithick     Iplas
         1         0                  .3                   1                   0         0
#                 Vx                  Vy                  Vz                 Phi
                   0                   0                   1                   0
#---1----|----2----|----3----|----4----|----5----|----6----|----7----|----8----|----9----|---10----|
/PROP/SH_ORTH/3
SECTION_SHELL_1.1
#   Ishell    Ismstr     Ish3n
         4         1         0
#                 hm                  hf                  hr                  dm                  dn
                   0                   0                   0                   0                   0
#        N   Istrain               Thick              Ashear              Ithick     Iplas
         1         0                  .3                   1                   0         0
#                 Vx                  Vy                  Vz                 Phi
                   0                   0                   1                   0
#---1----|----2----|----3----|----4----|----5----|----6----|----7----|----8----|----9----|---10----|
#-  7. FUNCTIONS:
#---1----|----2----|----3----|----4----|----5----|----6----|----7----|----8----|----9----|---10----|
/FUNCT/1
LoadCurve
#                  X                   Y
                   0                   0                                                            
                  .5                   1                                                            
                   1                   0                                                            
#---1----|----2----|----3----|----4----|----5----|----6----|----7----|----8----|----9----|---10----|
#-  8. INTERFACES:
#---1----|----2----|----3----|----4----|----5----|----6----|----7----|----8----|----9----|---10----|
/INTER/TYPE7/3
Contact_Airbag
#  Slav_id   Mast_id      Istf      Ithe      Igap     Multi      Ibag      Idel     Icurv      Iadm
        12        20         4         0         2         0         0         0         0         0
#          GAP_SCALE             GAP_MAX             FPENMAX
                   1                   0                 0.1
#              STMIN               STMAX
                   0                   0                   0
#              STFAC                FRIC             GAP_MIN              Tstart               Tstop
                   0                   0                   1                   0                   0
#     I_BC                        INACTI               VIS_S               VIS_F              BUMULT
       000                             6                   0                   0                   0
#    Ifric    Ifiltr               Xfreq     Iform
         0         0                   0         2
/GRNOD/NODE/12
INTER3_group_12_of_SURF
        57
/SURF/PART/20
NULL.3
         1
#---1----|----2----|----3----|----4----|----5----|----6----|----7----|----8----|----9----|---10----|
#-  9. IMPOSED DISPLACEMENTS:
#---1----|----2----|----3----|----4----|----5----|----6----|----7----|----8----|----9----|---10----|
/IMPDISP/3
LoadCol_1
#   Ifunct       DIR     Iskew   Isensor   Gnod_id     Frame
         1         Y         0         0        11         0
#            Scale_x             Scale_y              Tstart               Tstop
                 100               -1.25                   0                   0
/GRNOD/PART/11
NULL.2
         2
#---1----|----2----|----3----|----4----|----5----|----6----|----7----|----8----|----9----|---10----|
#- 10. TIME HISTORIES:
#---1----|----2----|----3----|----4----|----5----|----6----|----7----|----8----|----9----|---10----|
/TH/NODE/1
NULL.1
#     var1      var2      var3      var4      var5      var6      var7      var8      var9     var10
DEF       
#    NODid     Iskew                                           NODname
        57         0                                                                                
#---1----|----2----|----3----|----4----|----5----|----6----|----7----|----8----|----9----|---10----|
/TH/PART/3
NULL
#     var1      var2      var3      var4      var5      var6      var7      var8      var9     var10
DEF       
#     Obj1      Obj2      Obj3      Obj4      Obj5      Obj6      Obj7      Obj8      Obj9     Obj10
         1         2
#---1----|----2----|----3----|----4----|----5----|----6----|----7----|----8----|----9----|---10----|
/TH/INTER/7
NULL.2
#     var1      var2      var3      var4      var5      var6      var7      var8      var9     var10
DEF       
#     Obj1      Obj2      Obj3      Obj4      Obj5      Obj6      Obj7      Obj8      Obj9     Obj10
         3
#---1----|----2----|----3----|----4----|----5----|----6----|----7----|----8----|----9----|---10----|
#include qadiags.inc
/END
#---1----|----2----|----3----|----4----|----5----|----6----|----7----|----8----|----9----|---10----|
