//Copyright>    CFG Files and Library ("CFG")
//Copyright>    Copyright (C) 1986-2024 Altair Engineering Inc.
//Copyright>
//Copyright>    Altair Engineering Inc. grants to third parties limited permission to
//Copyright>    use and modify CFG solely in connection with OpenRadioss software, provided
//Copyright>    that any modification to CFG by a third party must be provided back to
//Copyright>    Altair Engineering Inc. and shall be deemed a Contribution under and therefore
//Copyright>    subject to the CONTRIBUTOR LICENSE AGREEMENT for OpenRadioss software.
//Copyright>
//Copyright>    CFG IS PROVIDED "AS IS", WITHOUT WARRANTY OF ANY KIND, EXPRESS OR IMPLIED,
//Copyright>    INCLUDING, BUT NOT LIMITED TO, THE WARRANTIES OF MERCHANTABILITY, FITNESS FOR
//Copyright>    A PARTICULAR PURPOSE, AND NONINFRINGEMENT.  IN NO EVENT SHALL ALTAIR ENGINEERING
//Copyright>    INC. OR ITS AFFILIATES BE LIABLE FOR ANY CLAIM, DAMAGES, OR OTHER LIABILITY,
//Copyright>    WHETHER IN AN ACTION OF CONTRACT, TORT, OR OTHERWISE, ARISING FROM, OUT OF, OR
//Copyright>    IN CONNECTION WITH CFG OR THE USE OR OTHER DEALINGS IN CFG.
//
//Material law 102 (INV_HYPERBOLIC_SIN) Setup File
//


ATTRIBUTES(COMMON)
{
    KEYWORD_STR         = VALUE(STRING, "Solver Keyword");
    LSD_TitleOpt        = VALUE(INT, "Title");
    CommentEnumField    = VALUE(INT, "User Comments");
    Num_Comments        = SIZE("No. of comment lines");
    Comments            = ARRAY[Num_Comments](STRING, "Entity Comments");
    TITLE               = VALUE(STRING, "Title");

    MatOptions102       = VALUE(INT, "Thermal_Option");
    HAS_MAT_OPTION      = VALUE(STRING, "Check for MAT OPTION");
    IO_FLAG             = VALUE(INT, "IO");

    //Card1 of LS-Dyna manual
    Rho                 = VALUE(FLOAT, "Mass density");  
    E                   = VALUE(FLOAT,"Young's Modulus");
    PR                  = VALUE(FLOAT,"Poisson's ratio");
    LSD_MAT52_T         = VALUE(FLOAT,"Initial Temperature");
    LSD_MAT52_HC        = VALUE(FLOAT,"Heat generation coefficient");
    LSD_MAT_VP          = VALUE(FLOAT,"Formulation for rate effects");

    //Card2 of LS-Dyna manual
    LSD_ALPHA           = VALUE(FLOAT,"Material constitutive constant alpha");
    LSDYNA_N            = VALUE(FLOAT,"Material constitutive constant n");
    LSD_MAT_A           = VALUE(FLOAT,"Material constitutive constant a");
    LSD_MAT_Q           = VALUE(FLOAT,"Activation energy for flow");
    LSD_G               = VALUE(FLOAT,"Universal gas constant");
    LSD_MAT_EPSO        = VALUE(FLOAT,"Reference strain rate");
    LSD_MAT102_LCQ      = VALUE(FUNCT, "Load curve for definition of parameter Q");
    LSD_LCID4           = VALUE(FUNCT, "ID of curve defining Young’s Modulus vs. temperature");
    LSD_LCID5           = VALUE(FUNCT, "ID of curve defining Poisson’s ratio vs. temperature");
    LSD_LCID6           = VALUE(FUNCT, "ID of curve defining coefficient of thermal expansion vs. temperature");
    _HAS_HEADER         = VALUE(BOOL,"Has Header Card");
}

SKEYWORDS_IDENTIFIER(COMMON)
{
    HAS_MAT_OPTION      = -1;
    IO_FLAG             = -1;

    KEYWORD_STR         = 9000;
    CommentEnumField    = 3220;
    Num_Comments        = 3101;
    LSD_TitleOpt        = 90;
    Comments            = 3100;

    MatOptions102       = 11007;

    Rho                 = 118;
    E                   = 119;
    PR                  = 120;
    LSD_MAT52_T         = 1226;
    LSD_MAT52_HC        = 1227;
    LSD_MAT_VP          = 4391;

    LSD_ALPHA           = 1651;
    LSDYNA_N            = 71;
    LSD_MAT_A           = 310;
    LSD_MAT_Q           = 6071;
    LSD_G               = 1560;
    LSD_MAT_EPSO        = 317;
    LSD_MAT102_LCQ      = 8905;
    LSD_LCID4           = 171;
    LSD_LCID5           = 172;
    LSD_LCID6           = 199;
    _HAS_HEADER         = -1;
}

DEFAULTS(COMMON) {
    _HAS_HEADER     = TRUE;
}

DRAWABLES(COMMON) {
public:
  MASS_DENSITY=SCALAR(Rho);
  YOUNG_MODULUS=SCALAR(E);
  POISSON_RATIO=SCALAR(PR);
  INITIAL_TEMPERATURE=SCALAR(LSD_MAT52_T);
  HEAT_GENERATION_COEFFICIENT=SCALAR(LSD_MAT52_HC);
  FORMULATION_FOR_RATE_EFFECTS=SCALAR(LSD_MAT_VP);
  MATERIAL_CONSTITUTIVE_CONSTANT_ALPHA=SCALAR(LSD_ALPHA);
  MATERIAL_CONSTITUTIVE_CONSTANT_N=SCALAR(LSDYNA_N);
  MATERIAL_CONSTITUTIVE_CONSTANT_A=SCALAR(LSD_MAT_A);
  ACTIVATION_ENERGY_FOR_FLOW=SCALAR(LSD_MAT_Q);
  UNIVERSAL_GAS_CONSTANT=SCALAR(LSD_G);
  REFERENCE_STRAIN_RATE=SCALAR(LSD_MAT_EPSO);
 public:
  //SOUND_SPEED is speed for ISDO = 0 and 1
  SOUND_SPEED       = EVAL((YOUNG_MODULUS/(MASS_DENSITY*(1-POISSON_RATIO*POISSON_RATIO)))^0.5);
  SOUND_SPEED_ISDO_2      = EVAL((YOUNG_MODULUS/MASS_DENSITY)^0.5);
 private:
  G                 = EVAL(YOUNG_MODULUS/(2*(1+POISSON_RATIO)));
  C1                = EVAL(YOUNG_MODULUS/(3*(1-2*POISSON_RATIO)));
 public:
  SOUND_SPEED_SOLID = EVAL(((4*G/3+C1)/MASS_DENSITY)^0.5);
}

GUI(COMMON){
  mandatory:
    SCALAR(Rho){DIMENSION="density";}
  optional:  
    SCALAR(E){DIMENSION="pressure";}
    SCALAR(PR){DIMENSION="DIMENSIONLESS";}
    SCALAR(LSD_MAT52_T){DIMENSION="k";}
    SCALAR(LSD_MAT52_HC){DIMENSION="DIMENSIONLESS";}
    RADIO(LSD_MAT_VP)
    {
      ADD(0.,"Scale yield stress") ;
      ADD(1.,"Viscoplastic formulation") ;
    }
    SCALAR(LSD_ALPHA){DIMENSION="DIMENSIONLESS";}
    SCALAR(LSDYNA_N){DIMENSION="DIMENSIONLESS";}
    SCALAR(LSD_MAT_A){DIMENSION="DIMENSIONLESS";}
    SCALAR(LSD_MAT_Q){DIMENSION="DIMENSIONLESS";}
    SCALAR(LSD_G){DIMENSION="DIMENSIONLESS";}
    SCALAR(LSD_MAT_EPSO){DIMENSION="DIMENSIONLESS";}
  //
/*
    graphical SUPPORT("Part(s) to which material is applied") {
      OBJECTS=(/PART/BRICK,/PART/TETRA4,/PART/LINEAR_3D);
      ADD(PART,"Parts");
    }
*/
}

//File format
FORMAT(Keyword971)
{

    ASSIGN(IO_FLAG, 1, IMPORT);
    ASSIGN(IO_FLAG, 2, EXPORT);
	
    if(IO_FLAG == 2 && LSD_TitleOpt == 0)
    {
        HEADER("*MAT_INV_HYPERBOLIC_SIN");
    }
    else if(IO_FLAG == 2 && LSD_TitleOpt == 1)
    {
        HEADER("*MAT_INV_HYPERBOLIC_SIN_TITLE");
        CARD("%-80s", TITLE);
    }

    COMMENT("$      MID       RHO         E        PR         T        HC        VP");
    CARD("%10d%10lg%10lg%10lg%10lg%10lg%10lg",_ID_,Rho,E,PR,LSD_MAT52_T,LSD_MAT52_HC,LSD_MAT_VP);

    COMMENT("$    ALPHA         N         A         Q         G      EPS0");
    CARD("%10lg%10lg%10lg%10lg%10lg%10lg",LSD_ALPHA,LSDYNA_N,LSD_MAT_A,LSD_MAT_Q,LSD_G,LSD_MAT_EPSO);
}

FORMAT(Keyword971_R7.1)
{
    ASSIGN(IO_FLAG, 1, IMPORT);
    ASSIGN(IO_FLAG, 2, EXPORT);
	
    if(IO_FLAG == 2 && LSD_TitleOpt == 0)
    {
        HEADER("*MAT_INV_HYPERBOLIC_SIN");
    }
    else if(IO_FLAG == 2 && LSD_TitleOpt == 1)
    {
        HEADER("*MAT_INV_HYPERBOLIC_SIN_TITLE");
        CARD("%-80s", TITLE);
    }

    COMMENT("$      MID       RHO         E        PR         T        HC        VP");
    CARD("%10d%10lg%10lg%10lg%10lg%10lg%10lg",_ID_,Rho,E,PR,LSD_MAT52_T,LSD_MAT52_HC,LSD_MAT_VP);

    COMMENT("$    ALPHA         N         A         Q         G      EPS0       LCQ");
    CARD("%10lg%10lg%10lg%10lg%10lg%10lg%10d",LSD_ALPHA,LSDYNA_N,LSD_MAT_A,LSD_MAT_Q,LSD_G,LSD_MAT_EPSO,LSD_MAT102_LCQ);
}

FORMAT(Keyword971_R10.1)
{
    ASSIGN(IO_FLAG, 1, IMPORT);
    ASSIGN(IO_FLAG, 2, EXPORT);

    // export time
    if(IO_FLAG == 2 && MatOptions102 == 2 && LSD_TitleOpt == 0)
    {
        HEADER("*MAT_INV_HYPERBOLIC_SIN_THERMAL");
    }
    else if(IO_FLAG == 2 && MatOptions102 == 2 && LSD_TitleOpt == 1)
    {
        HEADER("*MAT_INV_HYPERBOLIC_SIN_THERMAL_TITLE");
        CARD("%-80s", TITLE);
    }
    //Removing the check of MatOptions102 == 1 because this attribute might not be attached if user imports a model in a lower profile
    //tries to export the model in this or higher profile.
    else if(IO_FLAG == 2 && LSD_TitleOpt == 0)
    {
        HEADER("*MAT_INV_HYPERBOLIC_SIN");
    }
    else if(IO_FLAG == 2 && LSD_TitleOpt == 1)
    {
        HEADER("*MAT_INV_HYPERBOLIC_SIN_TITLE");
        CARD("%-80s", TITLE);
    }


    // import time
    if(IO_FLAG == 1)
    {
        HEADER("*MAT_102%14s", HAS_MAT_OPTION);
    }
    if(IO_FLAG == 1 && (HAS_MAT_OPTION != ""  || HAS_MAT_OPTION != "_TITLE" || HAS_MAT_OPTION != "_THERMAL" || HAS_MAT_OPTION != "_THERMAL_TITLE" ))
    {
        HEADER("*MAT_INV_HYPERBOLIC_SIN%14s", HAS_MAT_OPTION);
    }
    if(IO_FLAG == 1 && (HAS_MAT_OPTION == ""  || HAS_MAT_OPTION == "_TITLE"))
    {
        ASSIGN(MatOptions102, 1);
    }
    if(IO_FLAG == 1 && (HAS_MAT_OPTION == "_THERMAL" || HAS_MAT_OPTION == "_THERMAL_TITLE"))
    {
        ASSIGN(MatOptions102, 2);
    }

    if(MatOptions102 == 2)
    {
        COMMENT("$      MID       RHO     ALPHA         N         A         Q         G      EPSO");
        CARD("%10d%10lg%10lg%10lg%10lg%10lg%10lg%10lg",_ID_,Rho,LSD_ALPHA,LSDYNA_N,LSD_MAT_A,LSD_MAT_Q,LSD_G,LSD_MAT_EPSO);

        COMMENT("$      LCE      LCPR     LCCTE");
        CARD("%10d%10d%10d",LSD_LCID4,LSD_LCID5,LSD_LCID6);
    }
    else //if(MatOptions102 == 1)
    {
        COMMENT("$      MID       RHO         E        PR         T        HC        VP");
        CARD("%10d%10lg%10lg%10lg%10lg%10lg%10lg",_ID_,Rho,E,PR,LSD_MAT52_T,LSD_MAT52_HC,LSD_MAT_VP);

        COMMENT("$    ALPHA         N         A         Q         G      EPS0       LCQ");
        CARD("%10lg%10lg%10lg%10lg%10lg%10lg%10d",LSD_ALPHA,LSDYNA_N,LSD_MAT_A,LSD_MAT_Q,LSD_G,LSD_MAT_EPSO,LSD_MAT102_LCQ);
    }
}
