//Copyright>    CFG Files and Library ("CFG")
//Copyright>    Copyright (C) 1986-2023 Altair Engineering Inc.
//Copyright>
//Copyright>    Altair Engineering Inc. grants to third parties limited permission to
//Copyright>    use and modify CFG solely in connection with OpenRadioss software, provided
//Copyright>    that any modification to CFG by a third party must be provided back to
//Copyright>    Altair Engineering Inc. and shall be deemed a Contribution under and therefore
//Copyright>    subject to the CONTRIBUTOR LICENSE AGREEMENT for OpenRadioss software.
//Copyright>
//Copyright>    CFG IS PROVIDED "AS IS", WITHOUT WARRANTY OF ANY KIND, EXPRESS OR IMPLIED,
//Copyright>    INCLUDING, BUT NOT LIMITED TO, THE WARRANTIES OF MERCHANTABILITY, FITNESS FOR
//Copyright>    A PARTICULAR PURPOSE, AND NONINFRINGEMENT.  IN NO EVENT SHALL ALTAIR ENGINEERING
//Copyright>    INC. OR ITS AFFILIATES BE LIABLE FOR ANY CLAIM, DAMAGES, OR OTHER LIABILITY,
//Copyright>    WHETHER IN AN ACTION OF CONTRACT, TORT, OR OTHERWISE, ARISING FROM, OUT OF, OR
//Copyright>    IN CONNECTION WITH CFG OR THE USE OR OTHER DEALINGS IN CFG.
//
//Material law mat_sph_01 (MAT_SPH_VISCOUS) Setup File
//


ATTRIBUTES(COMMON)
{
    KEYWORD_STR         = VALUE(STRING, "Solver Keyword");
    LSD_TitleOpt        = VALUE(INT, "Title");
    CommentEnumField    = VALUE(INT, "User Comments");
    Num_Comments        = SIZE("No. of comment lines");
    Comments            = ARRAY[Num_Comments](STRING, "Entity Comments");

    //Card1 of LS-Dyna manual
    Rho                         = VALUE(FLOAT, "Mass density");
    LSD_MAT_PC                  = VALUE(FLOAT, "Pressure cutoff");
    LSD_MAT_SPH_MULO            = VALUE(FLOAT, "There are 4 possible cases");
    LSD_MAT_SPH_MUHI            = VALUE(FLOAT, "There are 2 possible cases");
    LSD_MAT_SPH_RK              = VALUE(FLOAT, "Variable dynamic viscosity multiplier");
    LSD_MAT_SPH_RC              = VALUE(FLOAT, "Option for Cross viscosity model");
    LSD_MAT_SPH_RN              = VALUE(FLOAT, "Variable dynamic viscosity exponent");

}

SKEYWORDS_IDENTIFIER(COMMON)
{
    KEYWORD_STR         = 9000;
    CommentEnumField    = 3220;
    Num_Comments        = 3101;
    LSD_TitleOpt        = 90;
    Comments            = 3100;

    Rho                 = 118;
    LSD_MAT_PC          = 282;
    LSD_MAT_SPH_MULO    = 11035;
    LSD_MAT_SPH_MUHI    = 11036;
    LSD_MAT_SPH_RK      = 11037;
    LSD_MAT_SPH_RC      = 11038;
    LSD_MAT_SPH_RN      = 11039;
}

DRAWABLES(COMMON) {
public:
    MASS_DENSITY=SCALAR(Rho);
}

GUI(COMMON){
  mandatory:
    SCALAR(Rho){DIMENSION="density";}
  optional:
    SCALAR(LSD_MAT_PC){DIMENSION="DIMENSIONLESS";}
    SCALAR(LSD_MAT_SPH_MULO){DIMENSION="k";}
    SCALAR(LSD_MAT_SPH_MUHI){DIMENSION="DIMENSIONLESS";}
    SCALAR(LSD_MAT_SPH_RK){DIMENSION="DIMENSIONLESS";}
    SCALAR(LSD_MAT_SPH_RC){DIMENSION="DIMENSIONLESS";}
    SCALAR(LSD_MAT_SPH_RN){DIMENSION="DIMENSIONLESS";}
}

FORMAT(Keyword971_R10.1)
{
    COMMENT("$      MID        RO        PC      MULO      MUHI        RK        RC        RN");
    CARD("%10d%10lg%10lg%10lg%10lg%10lg%10lg%10lg",_ID_,Rho,LSD_MAT_PC,LSD_MAT_SPH_MULO,LSD_MAT_SPH_MUHI,LSD_MAT_SPH_RK,LSD_MAT_SPH_RC,LSD_MAT_SPH_RN);
}
