#RADIOSS STARTER
#---1----|----2----|----3----|----4----|----5----|----6----|----7----|----8----|----9----|---10----|
/BEGIN
COMP                                                                       
      2019         0
                  kg                  mm                  ms
                  kg                  mm                  ms
#---1----|----2----|----3----|----4----|----5----|----6----|----7----|----8----|----9----|---10----|
#-  1. CONTROL CARDS:
#---1----|----2----|----3----|----4----|----5----|----6----|----7----|----8----|----9----|---10----|
/TITLE
UNKNOW
#---1----|----2----|----3----|----4----|----5----|----6----|----7----|----8----|----9----|---10----|
#include COMPD0B
#include qadiags.inc
#---1----|----2----|----3----|----4----|----5----|----6----|----7----|----8----|----9----|---10----|
/ANALY
#    N2D3D             IPARITH      ISUB
         0                   0         0
#---1----|----2----|----3----|----4----|----5----|----6----|----7----|----8----|----9----|---10----|
/DEF_SHELL
#   ISHELL    ISMSTR    ITHICK     IPLAS   ISTRAIN                        I_SH3N     IDRIL
         0         0         0         0         0                             0         0
#---1----|----2----|----3----|----4----|----5----|----6----|----7----|----8----|----9----|---10----|
/DEF_SOLID
#  I_SOLID    ISMSTR             ISTRAIN                                  IFRAME
         0         0                   0                                       0
#---1----|----2----|----3----|----4----|----5----|----6----|----7----|----8----|----9----|---10----|
/IOFLAG
#     IPRI               IGTYP     IOUTP    IOUTYY   IROOTYY     IDROT
         0                   0         0         0         0         0
#---1----|----2----|----3----|----4----|----5----|----6----|----7----|----8----|----9----|---10----|
/RANDOM
#       Random-Noise                Seed
                   0                   0
#---1----|----2----|----3----|----4----|----5----|----6----|----7----|----8----|----9----|---10----|
#-  2. MATERIALS:
#---1----|----2----|----3----|----4----|----5----|----6----|----7----|----8----|----9----|---10----|
/MAT/LAW66/2
Mat 2
#              RHO_I
               .0028
#                  E                  Nu              C_hard               F_cut  F_smooth Iyld_rate
               60000                 .32                   0                1E30         0         1
#                P_c                 P_t
                 500                 600
#funct_IDc funct_IDt             Fscalec             Fscalet
         4         3                   0                   0
#          Epsilon_0                   c            Sigma_Y0        VP
                   0                   0                   0         0
#---1----|----2----|----3----|----4----|----5----|----6----|----7----|----8----|----9----|---10----|
/MAT/LAW76/3
Mat 3
#              RHO_I
               .0028
#                  E                  nu
               60000                 .32
#  TAB_ID1   TAB_ID2   TAB_ID3
         3         4         3
#            Fscalet             Fscalec             Fscales                                    XFAC
                   0                   0                   0                                       0
#               Nu_p  fct_IDpr           Fscale_pr   Fsmooth                Fcut
                 0.5         0                   0         0                   0
#        Epsilon_f_p         Epsilon_r_p
                   0                   0
#  fct_ID1                                 Fscale1
         0                                       0
#    IFORM     IQUAD     ICONV
         0         0         1
#---1----|----2----|----3----|----4----|----5----|----6----|----7----|----8----|----9----|---10----|
#-  3. BOUNDARY CONDITIONS:
#---1----|----2----|----3----|----4----|----5----|----6----|----7----|----8----|----9----|---10----|
/BCS/4
fix_end_bc
#  Tra rot   skew_ID  grnod_ID
   100 111         0        23
/GRNOD/GRNOD/23
fix_end_bc
        25
/GRNOD/GRNOD/25
fix_end_bc
        24
/GRNOD/NODE/24
fix_end_bc
     15758     15783
#---1----|----2----|----3----|----4----|----5----|----6----|----7----|----8----|----9----|---10----|
/BCS/5
load_BC
#  Tra rot   skew_ID  grnod_ID
   000 111         0        26
/GRNOD/GRNOD/26
load_BC
        28
/GRNOD/GRNOD/28
load_BC
        27
/GRNOD/NODE/27
load_BC
     18358     18383
#---1----|----2----|----3----|----4----|----5----|----6----|----7----|----8----|----9----|---10----|
#-  4. PARTS:
#---1----|----2----|----3----|----4----|----5----|----6----|----7----|----8----|----9----|---10----|
/PART/2
SPECT
         2         3         1
#---1----|----2----|----3----|----4----|----5----|----6----|----7----|----8----|----9----|---10----|
/PART/3
SPEC
         2         2         1
#---1----|----2----|----3----|----4----|----5----|----6----|----7----|----8----|----9----|---10----|
#-  5. SUBSETS:
#---1----|----2----|----3----|----4----|----5----|----6----|----7----|----8----|----9----|---10----|
/SUBSET/1
UNEL
#---1----|----2----|----3----|----4----|----5----|----6----|----7----|----8----|----9----|---10----|
#-  6. GEOMETRICAL SETS:
#---1----|----2----|----3----|----4----|----5----|----6----|----7----|----8----|----9----|---10----|
/PROP/SHELL/2
Shell
#   Ishell    Ismstr     Ish3n    Idrill                            P_thick_fail
         4         4         2         0                                       0
#                 hm                  hf                  hr                  dm                  dn
                   0                   0                   0                   0                   0
#        N   Istrain               Thick              Ashear              Ithick     Iplas
         1         1                   3                   0                   1         0
#---1----|----2----|----3----|----4----|----5----|----6----|----7----|----8----|----9----|---10----|
#-  7. FUNCTIONS:
#---1----|----2----|----3----|----4----|----5----|----6----|----7----|----8----|----9----|---10----|
/FUNCT/2
x_displ_vs_time_5m s
#                  X                   Y
                   0                   0
                   1                   5
                  10                  50
#---1----|----2----|----3----|----4----|----5----|----6----|----7----|----8----|----9----|---10----|
/FUNCT/3
Mat
#                  X                   Y
                   0          376.315789
                .002          382.565265
                .004          388.631363
                .006          394.520665
                .008           400.23959
                 .01          405.794389
                .012          411.191151
                .014          416.435798
                .016          421.534086
                .018          426.491607
                 .02          431.313789
                .022          436.005894
                .024          440.573017
                .026          445.020091
                .028          449.351881
                 .03          453.572989
                .032          457.687852
                .034           461.70074
                .036          465.615759
                .038          469.436851
# ... 52 like lines cut
#---1----|----2----|----3----|----4----|----5----|----6----|----7----|----8----|----9----|---10----|
/FUNCT/4
Mat
#                  X                   Y
                   0          357.894737
                .002          367.302393
                .004          375.929454
                .006          383.844601
                .008          391.112055
                 .01          397.791758
                .012          403.939545
                .014          409.607324
                .016          414.843244
                .018          419.691858
                 .02          424.194294
                .022          428.388408
                .024          432.308943
                .026          435.987683
                .028          439.453601
                 .03          442.733009
                .032          445.849694
                .034          448.825063
                .036          451.678278
                .038          454.426385
# ... 81 like lines cut
#---1----|----2----|----3----|----4----|----5----|----6----|----7----|----8----|----9----|---10----|
/FUNCT/5
Mat
#                  X                   Y
                -100                   1
                   0                   1
            1.804758                   1
           42.011879                   1
           82.145248                   1
          119.442947             .976387
          122.462051             .962042
          125.164124             .968482
          127.670731             .973619
            130.0047             .977608
          132.174835             .980585
          134.189682             .982673
          136.063217             .983986
          137.806213             .984629
          139.429779             .984699
          140.945801             .984282
          142.364487             .983458
          143.695038               .9823
          144.947418             .980872
          146.130341              .97923
# ... 250 like lines cut
#---1----|----2----|----3----|----4----|----5----|----6----|----7----|----8----|----9----|---10----|
/FUNCT/6
Mat
#                  X                   Y
               -2000             .572246
         -1881.50898             .572246
         -1710.11909             .575594
         -1538.72921             .579741
         -1367.33932             .585013
         -1195.94943             .591939
         -1024.55955             .601441
          -853.16966             .615286
         -681.779773             .637334
         -510.389887             .677942
                -339             .777582
         -330.430506              .78651
         -321.861011             .796138
         -313.291517             .806551
         -304.722023             .817849
         -296.152528             .830151
         -287.583034             .843597
          -279.01354             .858353
         -270.444045             .874622
         -261.874551             .892648
# ... 121 like lines cut
#---1----|----2----|----3----|----4----|----5----|----6----|----7----|----8----|----9----|---10----|
#-  8. IMPOSED DISPLACEMENTS:
#---1----|----2----|----3----|----4----|----5----|----6----|----7----|----8----|----9----|---10----|
/IMPDISP/2
x_SPEC
#   Ifunct       DIR     Iskew   Isensor   Gnod_id     Frame     Icoor
         2         X         0         0        15         0         0
#            Scale_x             Scale_y              Tstart               Tstop
                   1                  -1                   0                   0
/GRNOD/NODE/15
load_nodes_spec
     18358     18383
#---1----|----2----|----3----|----4----|----5----|----6----|----7----|----8----|----9----|---10----|
#-  9. TIME HISTORIES:
#---1----|----2----|----3----|----4----|----5----|----6----|----7----|----8----|----9----|---10----|
/TH/PART/9
PARTS
#     var1      var2      var3      var4      var5      var6      var7      var8      var9     var10
DEF       
#     Obj1      Obj2      Obj3      Obj4      Obj5      Obj6      Obj7      Obj8      Obj9     Obj10
         3         2
#---1----|----2----|----3----|----4----|----5----|----6----|----7----|----8----|----9----|---10----|
/TH/SHEL/10
spec
#     var1      var2      var3      var4      var5      var6      var7      var8      var9     var10
DEF       
#     Elid   Skew_ID                                            Elname
   1000001         0compr                                                                           
#---1----|----2----|----3----|----4----|----5----|----6----|----7----|----8----|----9----|---10----|
/END
#---1----|----2----|----3----|----4----|----5----|----6----|----7----|----8----|----9----|---10----|
