#RADIOSS STARTER
# Copyright (C) 2022 Altair Engineering Inc. ("Holder")
# Model is licensed by Holder under CC BY-NC 4.0
# (https://creativecommons.org/licenses/by-nc/4.0/legalcode).
#--------------------------------------------------------------------------------------------------|
#- RADIOSS DECK WRITTEN BY HyperCrash
#HyperCrash 9.0 SA1 
#Tue Dec 09 18:23:02 2008
#-
#-
#- DATE	Tue Dec 09 18:23:02 2008
#--------------------------------------------------------------------------------------------------|
/BEGIN
FOAM_GRSHEL                                                                     
#---1----|----2----|----3----|----4----|----5----|----6----|----7----|----8----|----9----|---10----|
       110         0
                   1                   1                   1
                   1                   1                   1
#---1----|----2----|----3----|----4----|----5----|----6----|----7----|----8----|----9----|---10----|
#-  1. CONTROL CARDS:
#---1----|----2----|----3----|----4----|----5----|----6----|----7----|----8----|----9----|---10----|
/TITLE
FOAM_00
/MEMORY
#   MEMORY                        REAL%%
     25000                             0
/SPMD
#   DOMDEC      SPMD              DECMOT
         0         1                   0
/IOFLAG
#     IPRI     IRTYP     IGTYP     IOUTP    IOUTYY   IROOTYY                                 IRTYP_R
         5         0         0         0         0         0                                       0
/ANALY
#    N2D3D     INTEG   IPARITH      ISUB
         0         0         1         0
/DEF_SOLID
#  B_HOURG   B_SSTRN                                                      Iframe
         0         0                                                           0
/DEF_SHELL
#  S_HOURG   S_SSTRN   S_THICK   S_PLAST    S_STRN                        I_SH3N
         0         0         0         0         0                             0
/RANDOM
#   Random-Noise
                   0
#---1----|----2----|----3----|----4----|----5----|----6----|----7----|----8----|----9----|---10----|
#-  2. MATERIALS:
#---1----|----2----|----3----|----4----|----5----|----6----|----7----|----8----|----9----|---10----|
/MAT/LAW70/1
Foam 50g/l
#        Init. dens.     
                5E-8
#                 EO                  NU               E_MAX             EPS_MAX
                 .01                   0                  10                  .8
#             CUTOFF    ISRATE    NRATEP    NRATEN     IFLAG               SHAPE                 HYS
                  .1         1         4         0         4                   2               1E-20
#       ID         STRAIN RATE               SCALE for loading functions
         1                   0                .001
         2                 .01                .001
         3                  .1                .001
         3                   1                .001
#       ID          STRAINRATE               SCALE for unloading functions
#---1----|----2----|----3----|----4----|----5----|----6----|----7----|----8----|----9----|---10----|
/MAT/PLAS_JOHNS/4
STEEL
#        Init. dens.          Ref. dens.
              7.9E-6                   0
#                  E                  Nu
                 210                  .3
#                  a                   b                   n             Eps_max              sigmax
                  .2                 .45                  .5                   0                   0
#                  c                EPS0       Icc   Fsmooth               F_CUT
                   0                   0         0         0                   0
#                  m              T_melt               rhoCp                 T_i
                   0                   0                   0                   0
#---1----|----2----|----3----|----4----|----5----|----6----|----7----|----8----|----9----|---10----|
#-  3. NODES:
#---1----|----2----|----3----|----4----|----5----|----6----|----7----|----8----|----9----|---10----|
/NODE
         1                 100                   0                  70
         2                 100                  10                  70
         3                 100                  20                  70
         4                 100                  30                  70
         5                 100                  40                  70
         6                 100                  50                  70
         7                  90                   0                  70
         8                  90                  10                  70
         9                  90                  20                  70
        10                  90                  30                  70
        11                  90                  40                  70
        12                  90                  50                  70
        13                  80                   0                  70
        14                  80                  10                  70
        15                  80                  20                  70
        16                  80                  30                  70
        17                  80                  40                  70
        18                  80                  50                  70
        19                  70                   0                  70
        20                  70                  10                  70
# ... 4886 like lines cut
#---1----|----2----|----3----|----4----|----5----|----6----|----7----|----8----|----9----|---10----|
/PART/10
wall
         4         4         0
#---1----|----2----|----3----|----4----|----5----|----6----|----7----|----8----|----9----|---10----|
# SHELL elements of /PART/3/SHELL_897:
#---1----|----2----|----3----|----4----|----5----|----6----|----7----|----8----|----9----|---10----|
/SHELL/10
     10000     10001     10002     10003     10004
#---1----|----2----|----3----|----4----|----5----|----6----|----7----|----8----|----9----|---10----|
#-  4. BOUNDARY CONDITIONS:
#---1----|----2----|----3----|----4----|----5----|----6----|----7----|----8----|----9----|---10----|
/BCS/10
wall
#   trarot   Skew_id   Gnod_id
   111 111         0       100
/GRNOD/NODE/100
wall
     10001     10002     10003     10004
#---1----|----2----|----3----|----4----|----5----|----6----|----7----|----8----|----9----|---10----|
/BCS/2
sphere
#   trarot   Skew_id   Gnod_id
   101 111         0        19
/GRNOD/NODE/19
sphere_2
      6144
#---1----|----2----|----3----|----4----|----5----|----6----|----7----|----8----|----9----|---10----|
#-  5. PARTS:
#---1----|----2----|----3----|----4----|----5----|----6----|----7----|----8----|----9----|---10----|
/PART/1
sphere
         4         4         0
#---1----|----2----|----3----|----4----|----5----|----6----|----7----|----8----|----9----|---10----|
# SH3N elements of /PART/1/sphere:
#---1----|----2----|----3----|----4----|----5----|----6----|----7----|----8----|----9----|---10----|
/SH3N/1
      2801       722       683       730                                                           0
      2802       769       790       754                                                           0
      2803       769       802       831                                                           0
      2804       889       956       929                                                           0
      2805      1192      1117      1163                                                           0
      2806      1192      1178      1129                                                           0
      2807      1480      1532      1473                                                           0
      2808      1483      1485      1523                                                           0
      2809      1483      1555      1513                                                           0
      2810      1697      1635      1658                                                           0
      2811      1868      1842      1824                                                           0
      2812      1868      1859      1882                                                           0
#---1----|----2----|----3----|----4----|----5----|----6----|----7----|----8----|----9----|---10----|
# SHELL elements of /PART/1/sphere:
#---1----|----2----|----3----|----4----|----5----|----6----|----7----|----8----|----9----|---10----|
/SHELL/1
      2813       562       561       563       566                                                 0
      2814       561       565       564       563                                                 0
      2815       568       567       561       562                                                 0
      2816       567       569       565       561                                                 0
      2817       565       571       570       564                                                 0
      2818       563       564       576       575                                                 0
      2819       566       563       575       577                                                 0
      2820       572       574       567       568                                                 0
      2821       579       568       562       573                                                 0
      2822       569       578       571       565                                                 0
      2823       573       562       566       581                                                 0
      2824       574       580       569       567                                                 0
      2825       564       570       582       576                                                 0
      2826       583       572       568       579                                                 0
      2827       580       587       578       569                                                 0
      2828       581       566       577       592                                                 0
      2829       571       588       584       570                                                 0
      2830       577       575       586       589                                                 0
      2831       575       576       590       586                                                 0
      2832       591       579       573       585                                                 0
# ... 1408 like lines cut
#---1----|----2----|----3----|----4----|----5----|----6----|----7----|----8----|----9----|---10----|
/PART/4
solid
         1         1         0
#---1----|----2----|----3----|----4----|----5----|----6----|----7----|----8----|----9----|---10----|
# BRICK elements of /PART/4/solid:
#---1----|----2----|----3----|----4----|----5----|----6----|----7----|----8----|----9----|---10----|
/BRICK/4
         1        92      2218      3579      2217      2219      3581      4552      3580
         2      2218        98      2234      3579      3581      2236      3596      4552
         3      2217      3579      2221        93      3580      4552      3584      2222
         4      3579      2234        99      2221      4552      3596      2239      3584
         5      2219      3581      4552      3580       158      2399      3744      2398
         6      3581      2236      3596      4552      2399       164      2415      3744
         7      3580      4552      3584      2222      2398      3744      2402       159
         8      4552      3596      2239      3584      3744      2415       165      2402
         9        26      2037      3360      2036      2038      3362      4553      3361
        10      2037        32      2053      3360      3362      2055      3431      4553
        11      2036      3360      2040        27      3361      4553      3359      2041
        12      3360      2053        33      2040      4553      3431      2058      3359
        13      2038      3362      4553      3361        92      2218      3579      2217
        14      3362      2055      3431      4553      2218        98      2234      3579
        15      3361      4553      3359      2041      2217      3579      2221        93
        16      4553      3431      2058      3359      3579      2234        99      2221
        17       416      3106      4388      3105      3107      4390      4554      4389
        18      3106       422      3122      4388      4390      3124      4405      4554
        19      3105      4388      3109       417      4389      4554      4393      3110
        20      4388      3122       423      3109      4554      4405      3127      4393
# ... 2780 like lines cut
#---1----|----2----|----3----|----4----|----5----|----6----|----7----|----8----|----9----|---10----|
#-  6. GEOMETRICAL SETS:
#---1----|----2----|----3----|----4----|----5----|----6----|----7----|----8----|----9----|---10----|
/PROP/SOLID/1
SOLID_SM
#   Isolid    Ismstr               Icpre               Inpts              Iframe                  dn
         1         1                   0                   0                   1                   0
#                q_a                 q_b                   h
                   0                   0                   0
#             dt_min
                   0
#---1----|----2----|----3----|----4----|----5----|----6----|----7----|----8----|----9----|---10----|
/PROP/SHELL/4
PSHELL648
#   Ishell    Ismstr     Ish3n
        24         0         0
#                 hm                  hf                  hr                  dm                  dn
                   0                   0                   0                   0                   0
#        N   Istrain               Thick              Ashear              Ithick     Iplas
         5         0                   6                   0                   0         0
#---1----|----2----|----3----|----4----|----5----|----6----|----7----|----8----|----9----|---10----|
#-  7. FUNCTIONS:
#---1----|----2----|----3----|----4----|----5----|----6----|----7----|----8----|----9----|---10----|
/FUNCT/1
Foam
#                  X                   Y
                 -.8         -.097194667                                                            
                -.79         -.095969333                                                            
                -.78         -.094760667                                                            
                -.77         -.093443667                                                            
                -.76         -.092274667                                                            
                -.75         -.090976333                                                            
                -.74         -.089690333                                                            
                -.73            -.088521                                                            
                -.72         -.087254667                                                            
                -.71            -.086076                                                            
                 -.7         -.084851333                                                            
                -.69            -.083637                                                            
                -.68         -.082283333                                                            
                -.67            -.081113                                                            
                -.66            -.079988                                                            
                -.65         -.078739667                                                            
                -.64         -.077505667                                                            
                -.63              -.0763                                                            
                -.62         -.075012667                                                            
                -.61            -.073916                                                            
# ... 160 like lines cut
#---1----|----2----|----3----|----4----|----5----|----6----|----7----|----8----|----9----|---10----|
/FUNCT/2
Foam
#                  X                   Y
                 -.8         -.134375333                                                            
                -.79            -.132799                                                            
                -.78         -.130917333                                                            
                -.77         -.129053333                                                            
                -.76             -.12715                                                            
                -.75         -.125407333                                                            
                -.74            -.123952                                                            
                -.73            -.121923                                                            
                -.72         -.119564333                                                            
                -.71         -.118229333                                                            
                 -.7         -.116257333                                                            
                -.69         -.114769333                                                            
                -.68         -.112971667                                                            
                -.67         -.111041667                                                            
                -.66            -.109543                                                            
                -.65         -.108030333                                                            
                -.64         -.105907667                                                            
                -.63         -.104309333                                                            
                -.62         -.102424667                                                            
                -.61         -.100632667                                                            
# ... 160 like lines cut
#---1----|----2----|----3----|----4----|----5----|----6----|----7----|----8----|----9----|---10----|
/FUNCT/3
Foam
#                  X                   Y
                 -.8         -.134375333                                                            
                -.79            -.132799                                                            
                -.78         -.130917333                                                            
                -.77         -.129053333                                                            
                -.76             -.12715                                                            
                -.75         -.125407333                                                            
                -.74            -.123952                                                            
                -.73            -.121923                                                            
                -.72         -.119564333                                                            
                -.71         -.118229333                                                            
                 -.7         -.116257333                                                            
                -.69         -.114769333                                                            
                -.68         -.112971667                                                            
                -.67         -.111041667                                                            
                -.66            -.109543                                                            
                -.65         -.108030333                                                            
                -.64         -.105907667                                                            
                -.63         -.104309333                                                            
                -.62         -.102424667                                                            
                -.61         -.100632667                                                            
# ... 160 like lines cut
#---1----|----2----|----3----|----4----|----5----|----6----|----7----|----8----|----9----|---10----|
/FUNCT/10
Gravity
#                  X                   Y
                   0             -.00981                                                            
                   1             -.00981                                                            
#---1----|----2----|----3----|----4----|----5----|----6----|----7----|----8----|----9----|---10----|
#-  8. GRAVITIES:
#---1----|----2----|----3----|----4----|----5----|----6----|----7----|----8----|----9----|---10----|
/GRAV/1
sphere
#   Ifunct       DIR     Iskew   Isensor   Gnod_id                       Scale_x             Scale_y
        10         Y         0         0        22                             0                   7
/GRNOD/GRNOD/22
sphere_1
        20        21
/GRNOD/NODE/20
sphere_1
      6144
/GRNOD/PART/21
sphere_1
         1
#---1----|----2----|----3----|----4----|----5----|----6----|----7----|----8----|----9----|---10----|
#-  9. INTERFACES:
#---1----|----2----|----3----|----4----|----5----|----6----|----7----|----8----|----9----|---10----|
/INTER/TYPE7/5
sphere - foam
#  Slav_id   Mast_id      Istf      Ithe      Igap     Multi      Ibag      Idel     Icurv      Iadm
        26        25         4         0         0         4         0         0         0         0
#          GAP_SCALE             GAP_MAX
                   0                   0
#              STMIN               STMAX
                   0                   0
#              STFAC                FRIC             GAP_MIN              Tstart               Tstop
                   0                  .4                   1                   0                   0
#     I_BC                        INACTI               VIS_S               VIS_F              BUMULT
       000                             0                   0                   0                   0
#    Ifric    Ifiltr               Xfreq     Iform
         0         0                   0         2
/GRNOD/PART/26
sphere
         1
/SURF/PART/ALL/25
Foam
         4
#---1----|----2----|----3----|----4----|----5----|----6----|----7----|----8----|----9----|---10----|
/INTER/TYPE7/6
sphere - foam
#  Slav_id   Mast_id      Istf      Ithe      Igap     Multi      Ibag      Idel     Icurv      Iadm
        28        29         4         0         0         4         0         0         0         0
#          GAP_SCALE             GAP_MAX
                   0                   0
#              STMIN               STMAX
                   0                   0
#              STFAC                FRIC             GAP_MIN              Tstart               Tstop
                   0                  .3                   1                   0                   0
#     I_BC                        INACTI               VIS_S               VIS_F              BUMULT
       000                             0                   0                   0                   0
#    Ifric    Ifiltr               Xfreq     Iform
         0         0                   0         2
/GRNOD/PART/28
Foam
         4
/SURF/PART/29
sphere
         1
#---1----|----2----|----3----|----4----|----5----|----6----|----7----|----8----|----9----|---10----|
/INTER/TYPE7/7
wall
#  Slav_id   Mast_id      Istf                Igap     Multi      Ibag      Idel     Icurv
       103        32         4                   0         0         0         0         0
#          GAP_SCALE             GAP_MAX
                   0                   0
#              STMIN               STMAX
                   0                   0
#              STFAC                FRIC             GAP_MIN              Tstart               Tstop
                   0                  .3                   1                   0                   0
#     I_BC                        INACTI               VIS_S               VIS_F              BUMULT
       000                             0                   0                   0                   0
#    Ifric    Ifiltr               Xfreq     Iform
         0         0                   0         0
/GRNOD/PART/103
New GRNOD 101 _parts_subsubgroup_
         4
/SURF/PART/32
New SURF 30 _parts_subsubgroup_
        10
#---1----|----2----|----3----|----4----|----5----|----6----|----7----|----8----|----9----|---10----|
#- 10. RIGID WALLS:
#---1----|----2----|----3----|----4----|----5----|----6----|----7----|----8----|----9----|---10----|
#- 11. RIGID BODIES:
#---1----|----2----|----3----|----4----|----5----|----6----|----7----|----8----|----9----|---10----|
/RBODY/1
new_rigid_body
#     RBID     ISENS     NSKEW    ISPHER                MASS   Gnod_id     IKREM      ICOG   Surf_id
      6144         0         0         0                   5        18         0         0         0
#                Jxx                 Jyy                 Jzz
                   0                   0                   0
#                Jxy                 Jyz                 Jxz
                   0                   0                   0
#            Ioptoff
                   0
/GRNOD/PART/18
new_rigid_body_1
         1
#---1----|----2----|----3----|----4----|----5----|----6----|----7----|----8----|----9----|---10----|
#- 12. TIME HISTORIES:
#---1----|----2----|----3----|----4----|----5----|----6----|----7----|----8----|----9----|---10----|
/TH/INTER/5
solid
#     var1      var2      var3      var4      var5      var6      var7      var8      var9     var10
DEF       
#     Obj1      Obj2      Obj3      Obj4      Obj5      Obj6      Obj7      Obj8      Obj9     Obj10
         5         6         7
#---1----|----2----|----3----|----4----|----5----|----6----|----7----|----8----|----9----|---10----|
#- 13. SKEWS & FRAMES:
#---1----|----2----|----3----|----4----|----5----|----6----|----7----|----8----|----9----|---10----|
/SKEW/FIX/1
SKEW_FIXED
#                 X1                  Y1                  Z1
                   1                   0                   0
#                 X2                  Y2                  Z2
                   1                   0                   1
#---1----|----2----|----3----|----4----|----5----|----6----|----7----|----8----|----9----|---10----|
/BOX/SPHER/1
SPHER_BOX_1
#       N1                                Diameter
      6144                                      61
#               X_P1                Y_P1                Z_P1
                   0                   0                   0
#---1----|----2----|----3----|----4----|----5----|----6----|----7----|----8----|----9----|---10----|
/BOX/CYLIN/2
CYLIN_BOX_2
#       N1        N2                     Diameter
         0         0                           15
#               X_P1                Y_P1                Z_P1
                   0          85.0006027          35.1149445
#               X_P2                Y_P2                Z_P2
                 100          85.0006027          35.1149445
#---1----|----2----|----3----|----4----|----5----|----6----|----7----|----8----|----9----|---10----|
/BOX/CYLIN/3
CYLIN_BOX_3
#       N1        N2                     Diameter
         0         0                           15
#               X_P1                Y_P1                Z_P1
                   0          85.0006027          35.1149445
#               X_P2                Y_P2                Z_P2
                 100          85.0006027          35.1149445
#---1----|----2----|----3----|----4----|----5----|----6----|----7----|----8----|----9----|---10----|
/GRSHEL/BOX/1001
GRSHEL_SPHER_1001
         1         1
#---1----|----2----|----3----|----4----|----5----|----6----|----7----|----8----|----9----|---10----|
/GRSHEL/BOX/1002
GRSHEL_CYLIN_1002
         2         1
#---1----|----2----|----3----|----4----|----5----|----6----|----7----|----8----|----9----|---10----|
/GRSHEL/BOX/1003
GRSHEL_CYLIN_1003
         3         2
#---1----|----2----|----3----|----4----|----5----|----6----|----7----|----8----|----9----|---10----|
#include qadiags.inc
/END
#---1----|----2----|----3----|----4----|----5----|----6----|----7----|----8----|----9----|---10----|
