#RADIOSS STARTER
# Copyright (C) 2024 Altair Engineering Inc. ("Holder")
# Model is licensed by Holder under CC BY-NC 4.0
# (https://creativecommons.org/licenses/by-nc/4.0/legalcode).
# Copyright (C) 2022 Altair Engineering Inc. ("Holder")
# Model is licensed by Holder under CC BY-NC 4.0
# (https://creativecommons.org/licenses/by-nc/4.0/legalcode).
#--------------------------------------------------------------------------------------------------|
#- RADIOSS DECK WRITTEN BY HyperCrash
#HyperCrash 2017.2.1 (64 bits) 
#Wed Oct 16 16:54:55 2019
#-
# INPUT DECK / GENERATED BY  MODEDIT V4.1i
#
#DATE	Thu Mar 14 17:25:59 2002
#
#- RADIOSS DECK / GENERATED BY HELIOSS 1.7.a
#-
#- DATE	Wed Nov  7 11:17:04 2001
#-  2. CONTROL CARDS:
# TITLE
#--1---|---2---|---3---|---4---|---5---|---6---|---7---|---8---|---9---|--10---|
# 2. CONTROL CARDS
#--1---|---2---|---3---|---4---|---5---|---6---|---7---|---8---|---9---|--10---|
# title
#
#-
#- DATE	Wed Oct 16 16:54:55 2019
#--------------------------------------------------------------------------------------------------|
#---1----|----2----|----3----|----4----|----5----|----6----|----7----|----8----|----9----|---10----|
/BEGIN
ACCELERO                                                                        
      2017         0
                  kg                   m                   s
                  kg                   m                   s
#---1----|----2----|----3----|----4----|----5----|----6----|----7----|----8----|----9----|---10----|
#-  1. CONTROL CARDS:
#---1----|----2----|----3----|----4----|----5----|----6----|----7----|----8----|----9----|---10----|
/TITLE
Tensile Specimen                                                                
#---1----|----2----|----3----|----4----|----5----|----6----|----7----|----8----|----9----|---10----|
/RANDOM
#       Random-Noise                Seed
                   0                   0
#---1----|----2----|----3----|----4----|----5----|----6----|----7----|----8----|----9----|---10----|
/SPMD
#   DOMDEC     Nproc              Dkword             Nthread
         0         0                   0                   0
#---1----|----2----|----3----|----4----|----5----|----6----|----7----|----8----|----9----|---10----|
/IOFLAG
#     IPRI               IGTYP     IOUTP    IOUTYY   IROOTYY     IDROT
         0                   0         0         0         0         0
#---1----|----2----|----3----|----4----|----5----|----6----|----7----|----8----|----9----|---10----|
/ANALY
#    N2D3D             IPARITH      ISUB
         0                   0         0
#---1----|----2----|----3----|----4----|----5----|----6----|----7----|----8----|----9----|---10----|
/DEF_SOLID
#  I_SOLID    ISMSTR             ISTRAIN                                  IFRAME
         0         0                   0                                       0
#---1----|----2----|----3----|----4----|----5----|----6----|----7----|----8----|----9----|---10----|
/DEF_SHELL
#   ISHELL    ISMSTR    ITHICK     IPLAS   ISTRAIN                        I_SH3N     IDRIL
         0         0         0         0         0                             1         0
#---1----|----2----|----3----|----4----|----5----|----6----|----7----|----8----|----9----|---10----|
/SHFRA/V4
#---1----|----2----|----3----|----4----|----5----|----6----|----7----|----8----|----9----|---10----|
#-  2. MATERIALS:
#---1----|----2----|----3----|----4----|----5----|----6----|----7----|----8----|----9----|---10----|
/MAT/LAW36/1
Mild Steel
#              RHO_I
        1.0799999E-6                   0
#                  E                  Nu           Eps_p_max               Eps_t               Eps_m
                  10                 .41               .0086               .0075               .0085
#  N_funct  F_smooth              C_hard               F_cut               Eps_f                  VP
         2         0                   0                   0                   0                   0
#  fct_IDp              Fscale   Fct_IDE                EInf                  CE
         0                   0         0                   0                   0
# func_ID1  func_ID2  func_ID3  func_ID4  func_ID5
      7277      7277
#           Fscale_1            Fscale_2            Fscale_3            Fscale_4            Fscale_5
                   1                   1
#          Eps_dot_1           Eps_dot_2           Eps_dot_3           Eps_dot_4           Eps_dot_5
                   0                1000
#---1----|----2----|----3----|----4----|----5----|----6----|----7----|----8----|----9----|---10----|
#-  3. NODES:
#---1----|----2----|----3----|----4----|----5----|----6----|----7----|----8----|----9----|---10----|
/NODE
         1               -57.5                 9.5                   0
         2               -57.5                4.75            9.65E-25
         3               -57.5            6.66E-16            1.22E-24
         4               -57.5               -4.75            1.06E-24
         5               -57.5                -9.5                   0
         6               -62.5                -9.5                   0
         7               -67.5                -9.5                   0
         8               -72.5                -9.5                   0
         9               -77.5                -9.5                   0
        10               -82.5            -9.49999                   0
        11               -82.5            -4.74999                   0
        12               -82.5                   0                   0
        13               -82.5                4.75                   0
        14               -82.5                 9.5                   0
        15               -77.5                 9.5                   0
        16               -72.5                 9.5                   0
        17               -67.5                 9.5                   0
        18               -62.5                 9.5                   0
        19               -67.5            -4.74999                   0
        20               -67.5                   0                   0
# ... 187 like lines cut
#---1----|----2----|----3----|----4----|----5----|----6----|----7----|----8----|----9----|---10----|
#-  4. BOUNDARY CONDITIONS:
#---1----|----2----|----3----|----4----|----5----|----6----|----7----|----8----|----9----|---10----|
/BCS/1
BOUNDARY CONDITION 1,011111
#  Tra rot   skew_ID  grnod_ID
   011 111         0         1
/GRNOD/NODE/1
BOUNDARY CONDITION NBR 1
       208
#---1----|----2----|----3----|----4----|----5----|----6----|----7----|----8----|----9----|---10----|
/BCS/2
BOUNDARY CONDITION 2,111111
#  Tra rot   skew_ID  grnod_ID
   111 111         0         2
/GRNOD/NODE/2
BOUNDARY CONDITION NBR 2
       207
#---1----|----2----|----3----|----4----|----5----|----6----|----7----|----8----|----9----|---10----|
#-  5. PARTS:
#---1----|----2----|----3----|----4----|----5----|----6----|----7----|----8----|----9----|---10----|
/PART/1
Shell part 1
         1         1         0
#---1----|----2----|----3----|----4----|----5----|----6----|----7----|----8----|----9----|---10----|
# SHELL elements of /PART/1/Shell part 1:
#---1----|----2----|----3----|----4----|----5----|----6----|----7----|----8----|----9----|---10----|
/SHELL/1
         1        22        20        19        23                             0                   0
         2        23        19         7         6                             0                   0
         3         3        22        23         4                             0                   0
         4         4        23         6         5                             0                   0
         5        18        17        21        24                             0                   0
         6        24        21        20        22                             0                   0
         7         1        18        24         2                             0                   0
         8         2        24        22         3                             0                   0
         9        25        12        11        27                             0                   0
        10        27        11        10         9                             0                   0
        11        26        25        27        28                             0                   0
        12        28        27         9         8                             0                   0
        13        20        26        28        19                             0                   0
        14        19        28         8         7                             0                   0
        15        15        14        13        29                             0                   0
        16        29        13        12        25                             0                   0
        17        16        15        29        30                             0                   0
        18        30        29        25        26                             0                   0
        19        17        16        30        21                             0                   0
        20        21        30        26        20                             0                   0
# ... 140 like lines cut
#---1----|----2----|----3----|----4----|----5----|----6----|----7----|----8----|----9----|---10----|
#-  6. GEOMETRICAL SETS:
#---1----|----2----|----3----|----4----|----5----|----6----|----7----|----8----|----9----|---10----|
/PROP/TYPE1/1
Shell part 1
#   Ishell    Ismstr     Ish3n    Idrill
         4         0         0         0
#                 hm                  hf                  hr                  dm                  dn
                   0                   0                   0                   0                   0
#        N   Istrain               Thick              Ashear              Ithick     Iplas
         5         1                 1.2                   0                   1         1
#---1----|----2----|----3----|----4----|----5----|----6----|----7----|----8----|----9----|---10----|
#-  7. FUNCTIONS:
#---1----|----2----|----3----|----4----|----5----|----6----|----7----|----8----|----9----|---10----|
/FUNCT/7277
FUNCTION: 7277
#                  X                   Y
                   0                 .05                                                            
                2E-4                  .1                                                            
                5E-4                .145                                                            
                .001                 .19                                                            
               .0025                .225                                                            
                .005                 .25                                                            
               .0075                .275                                                            
#---1----|----2----|----3----|----4----|----5----|----6----|----7----|----8----|----9----|---10----|
/FUNCT/7278
FUNCTION: 7278
#                  X                   Y
                   0                11.4                                                            
                 .01           11.422823                                                            
                 .02           11.445691                                                            
                 .03           11.468606                                                            
                 .04           11.491566                                                            
                 .05           11.514572                                                            
                 .06           11.537624                                                            
                 .07           11.560722                                                            
                 .08           11.583867                                                            
                 .09           11.607058                                                            
                  .1           11.630295                                                            
                 .11           11.653579                                                            
                 .12            11.67691                                                            
                 .13           11.700287                                                            
                 .14           11.723711                                                            
                 .15           11.747182                                                            
                 .16             11.7707                                                            
                 .17           11.794265                                                            
                 .18           11.817877                                                            
                 .19           11.841536                                                            
# ... 81 like lines cut
#---1----|----2----|----3----|----4----|----5----|----6----|----7----|----8----|----9----|---10----|
#-  8. ACCELEROMETERS:
#---1----|----2----|----3----|----4----|----5----|----6----|----7----|----8----|----9----|---10----|
/ACCEL/9
ACCEL No.: 9
#  node_ID   skew_ID                          Fcut
       208         0                          1.65
#---1----|----2----|----3----|----4----|----5----|----6----|----7----|----8----|----9----|---10----|
#-  9. RIGID BODIES:
#---1----|----2----|----3----|----4----|----5----|----6----|----7----|----8----|----9----|---10----|
/RBODY/207
RIGID BODY PRIMARY NODE 207
#     RBID     ISENS     NSKEW    ISPHER                MASS   Gnod_id     IKREM      ICOG   Surf_id
       207         0         0         0                   0         3         0         0         0
#                Jxx                 Jyy                 Jzz
                   0                   0                   0
#                Jxy                 Jyz                 Jxz
                   0                   0                   0
#Ioptoff Iexpams
         0         0
/GRNOD/NODE/3
RIGID BODY 207 NODES
         1         2         3         4         5         6         7         8         9        10
        11        12        13        14        15        16        17        18        19        20
        21        22        23        24        25        26        27        28        29        30
        32        33        38        39        40
#---1----|----2----|----3----|----4----|----5----|----6----|----7----|----8----|----9----|---10----|
/RBODY/208
RIGID BODY PRIMARY NODE 208
#     RBID     ISENS     NSKEW    ISPHER                MASS   Gnod_id     IKREM      ICOG   Surf_id
       208         0         0         0                   0         4         0         0         0
#                Jxx                 Jyy                 Jzz
                   0                   0                   0
#                Jxy                 Jyz                 Jxz
                   0                   0                   0
#Ioptoff Iexpams
         0         0
/GRNOD/NODE/4
RIGID BODY 208 NODES
       171       172       173       174       175       176       177       178       179       180
       181       182       183       184       185       186       187       188       189       190
       191       192       193       194       195       196       197       198       199       200
       201       202       203       204       205
#---1----|----2----|----3----|----4----|----5----|----6----|----7----|----8----|----9----|---10----|
#- 10. IMPOSED VELOCITIES:
#---1----|----2----|----3----|----4----|----5----|----6----|----7----|----8----|----9----|---10----|
/IMPVEL/1
Fixed Velocity 1
#funct_IDT       Dir   skew_ID sensor_ID  grnod_ID  frame_ID     Icoor
      7278         X         0         0         5         0         0
#           Ascale_x            Fscale_Y              Tstart               Tstop
                   0                   1                   0                   0
/GRNOD/NODE/5
Fixed Velocity NBR 1
       208
#---1----|----2----|----3----|----4----|----5----|----6----|----7----|----8----|----9----|---10----|
#- 11. TIME HISTORIES:
#---1----|----2----|----3----|----4----|----5----|----6----|----7----|----8----|----9----|---10----|
/TH/NODE/1
TIME HISTORY OF NODES
#     var1      var2      var3      var4      var5      var6      var7      var8      var9     var10
DEF       
#    NODid     Iskew                                           NODname
       207         0TH-NODE:      207                                                               
       208         0TH-NODE:      208                                                               
#---1----|----2----|----3----|----4----|----5----|----6----|----7----|----8----|----9----|---10----|
/TH/SHEL/2
NULL
#     var1      var2      var3      var4      var5      var6      var7      var8      var9     var10
DEF       
#     Elid   Skew_ID                                            Elname
        51         0TH-SHELL:       51                                                              
        85         0TH-SHELL:       85                                                              
        86         0TH-SHELL:       86                                                              
        91         0TH-SHELL:       91                                                              
        92         0TH-SHELL:       92                                                              
#---1----|----2----|----3----|----4----|----5----|----6----|----7----|----8----|----9----|---10----|
/TH/ACCEL/3
ACCELEROMETER
#     var1      var2      var3      var4      var5      var6      var7      var8      var9     var10
DEF       
#     Obj1      Obj2      Obj3      Obj4      Obj5      Obj6      Obj7      Obj8      Obj9     Obj10
         9
#---1----|----2----|----3----|----4----|----5----|----6----|----7----|----8----|----9----|---10----|
/TH/RBODY/4
TIME HISTORY OF RIGID BODIES
#     var1      var2      var3      var4      var5      var6      var7      var8      var9     var10
DEF       
#     Obj1      Obj2      Obj3      Obj4      Obj5      Obj6      Obj7      Obj8      Obj9     Obj10
       207       208
#---1----|----2----|----3----|----4----|----5----|----6----|----7----|----8----|----9----|---10----|
/END
#---1----|----2----|----3----|----4----|----5----|----6----|----7----|----8----|----9----|---10----|
