#RADIOSS STARTER
# Copyright (C) 2024 Altair Engineering Inc. ("Holder")
# Model is licensed by Holder under CC BY-NC 4.0
# (https://creativecommons.org/licenses/by-nc/4.0/legalcode).
# Copyright (C) 2022 Altair Engineering Inc. ("Holder")
# Model is licensed by Holder under CC BY-NC 4.0
# (https://creativecommons.org/licenses/by-nc/4.0/legalcode).
#--------------------------------------------------------------------------------------------------|
#- RADIOSS DECK WRITTEN BY HyperCrash
#HyperCrash 2022 (64 bits) 
#Fri May 20 19:20:55 2022
#-
#-
#- DATE	Fri May 20 19:20:55 2022
#--------------------------------------------------------------------------------------------------|
#---1----|----2----|----3----|----4----|----5----|----6----|----7----|----8----|----9----|---10----|
/BEGIN
1SHELL                                                                          
      2021         0
                  Mg                  mm                   s
                  Mg                  mm                   s
#---1----|----2----|----3----|----4----|----5----|----6----|----7----|----8----|----9----|---10----|
#-  1. CONTROL CARDS:
#---1----|----2----|----3----|----4----|----5----|----6----|----7----|----8----|----9----|---10----|
/TITLE
Shell
#---1----|----2----|----3----|----4----|----5----|----6----|----7----|----8----|----9----|---10----|
/ANALY
#    N2D3D             IPARITH      ISUB
         0                   0         0
#---1----|----2----|----3----|----4----|----5----|----6----|----7----|----8----|----9----|---10----|
/DEF_SHELL
#   ISHELL    ISMSTR    ITHICK     IPLAS   ISTRAIN                        I_SH3N     IDRIL
         0         0         1         1         1                             0         0
#---1----|----2----|----3----|----4----|----5----|----6----|----7----|----8----|----9----|---10----|
/DEF_SOLID
#  I_SOLID    ISMSTR     ICPRE             ITETRA4  ITETRA10      IMAS    IFRAME
         0         0         0                   0         0         0         0
#---1----|----2----|----3----|----4----|----5----|----6----|----7----|----8----|----9----|---10----|
/IOFLAG
#     IPRI                         IOUTP    IOUTYY   IROOTYY     IDROT
         0                             0         0         0         0
#---1----|----2----|----3----|----4----|----5----|----6----|----7----|----8----|----9----|---10----|
/RANDOM
#       Random-Noise                Seed
                   0                   0
#---1----|----2----|----3----|----4----|----5----|----6----|----7----|----8----|----9----|---10----|
#-  2. MATERIALS:
#---1----|----2----|----3----|----4----|----5----|----6----|----7----|----8----|----9----|---10----|
/MAT/PLAS_TAB/36
MAT36_Rupture
#              RHO_I
             7.85E-9                   0
#                  E                  Nu           Eps_p_max               Eps_t               Eps_m
              150000               1E-30                   3                .185                .192
#  N_funct  F_smooth              C_hard               F_cut               Eps_f                  VP
         1         0                   0                   0                   0                   0
#  fct_IDp              Fscale   Fct_IDE                EInf                  CE
         0                   0         0                   0                   0
# func_ID1  func_ID2  func_ID3  func_ID4  func_ID5
         5
#           Fscale_1            Fscale_2            Fscale_3            Fscale_4            Fscale_5
                   0
#          Eps_dot_1           Eps_dot_2           Eps_dot_3           Eps_dot_4           Eps_dot_5
                   0
/FAIL/WIERZBICKI/36
#                 C1                  C2                  C3                  C4                   m
                 .87                1.77                 .21                 .56                   2
#                  n  Ifail_sh  Ifail_so      Imoy
                .135         1         0         0
#---1----|----2----|----3----|----4----|----5----|----6----|----7----|----8----|----9----|---10----|
/MAT/PLAS_TAB/59
MAT59_Rupture
#              RHO_I
             7.85E-9                   0
#                  E                  Nu           Eps_p_max               Eps_t               Eps_m
              150000                  .3                   3                   0                   0
#  N_funct  F_smooth              C_hard               F_cut               Eps_f                  VP
         1         0                   0                   0                   1                   0
#  fct_IDp              Fscale   Fct_IDE                EInf                  CE
         0                   0         0                   0                   0
# func_ID1  func_ID2  func_ID3  func_ID4  func_ID5
         5
#           Fscale_1            Fscale_2            Fscale_3            Fscale_4            Fscale_5
                   0
#          Eps_dot_1           Eps_dot_2           Eps_dot_3           Eps_dot_4           Eps_dot_5
               .0041
/FAIL/WIERZBICKI/59
#                 C1                  C2                  C3                  C4                   m
                 .87                1.77                 .21                 .56                   2
#                  n  Ifail_sh  Ifail_so      Imoy
                .135         1         0         0
#---1----|----2----|----3----|----4----|----5----|----6----|----7----|----8----|----9----|---10----|
#-  3. NODES:
#---1----|----2----|----3----|----4----|----5----|----6----|----7----|----8----|----9----|---10----|
/NODE
         1                8610                 -64               441.5
         2                8610                 -43               441.5
         3                8635                 -64               441.5
         4                8635                 -43               441.5
        11                8610                 -34               441.5
        12                8610                 -13               441.5
        13                8635                 -34               441.5
        14                8635                 -13               441.5
#---1----|----2----|----3----|----4----|----5----|----6----|----7----|----8----|----9----|---10----|
#-  4. BOUNDARY CONDITIONS:
#---1----|----2----|----3----|----4----|----5----|----6----|----7----|----8----|----9----|---10----|
/BCS/1
ENCAS
#  Tra rot   skew_ID  grnod_ID
   111 111         0         5
/GRNOD/NODE/5
New GRNOD 4 _nodes_subsubgroup_
         1         2        11        12
#---1----|----2----|----3----|----4----|----5----|----6----|----7----|----8----|----9----|---10----|
/BCS/2
New BCS 2
#  Tra rot   skew_ID  grnod_ID
   111 000         0        11
/GRNOD/NODE/11
New GRNOD 10 _nodes_subsubgroup_
         3         4        13        14
#---1----|----2----|----3----|----4----|----5----|----6----|----7----|----8----|----9----|---10----|
#-  5. PARTS:
#---1----|----2----|----3----|----4----|----5----|----6----|----7----|----8----|----9----|---10----|
/PART/1
PART_59
         1        59         0
#---1----|----2----|----3----|----4----|----5----|----6----|----7----|----8----|----9----|---10----|
# SHELL elements of /PART/1/PART_59:
#---1----|----2----|----3----|----4----|----5----|----6----|----7----|----8----|----9----|---10----|
/SHELL/1
         1         3         1         2         4
#---1----|----2----|----3----|----4----|----5----|----6----|----7----|----8----|----9----|---10----|
/PART/2
PART_36
         1        36         0
#---1----|----2----|----3----|----4----|----5----|----6----|----7----|----8----|----9----|---10----|
# SHELL elements of /PART/2/PART_36:
#---1----|----2----|----3----|----4----|----5----|----6----|----7----|----8----|----9----|---10----|
/SHELL/2
        11        13        11        12        14
#---1----|----2----|----3----|----4----|----5----|----6----|----7----|----8----|----9----|---10----|
#-  6. GEOMETRICAL SETS:
#---1----|----2----|----3----|----4----|----5----|----6----|----7----|----8----|----9----|---10----|
/PROP/SHELL/1
PART_47
#   Ishell    Ismstr     Ish3n    Idrill                            P_thick_fail
         4         0         0         0                                       0
#                 hm                  hf                  hr                  dm                  dn
                 .01                 .01                 .01                   0                   0
#        N   Istrain               Thick              Ashear              Ithick     Iplas
         5         1                 1.9          .833333333                   1         0
#---1----|----2----|----3----|----4----|----5----|----6----|----7----|----8----|----9----|---10----|
#-  7. FUNCTIONS:
#---1----|----2----|----3----|----4----|----5----|----6----|----7----|----8----|----9----|---10----|
/FUNCT/1
New FUNCT 1
#                  X                   Y
                   0                   0
                 .01                  20
#---1----|----2----|----3----|----4----|----5----|----6----|----7----|----8----|----9----|---10----|
/FUNCT/5
Mat_0.004
#                  X                   Y
                   0              260.47
             .001048             285.474
             .004507             297.373
             .016289             326.307
              .02891             354.258
             .041452             377.438
              .05345             396.082
             .065447               412.1
              .07663             425.068
             .088459             437.155
             .099323              446.97
             .110154               455.8
              .12117              463.91
             .131963             471.204
             .143266             478.244
             .153501             484.115
             .172727             494.108
             .181857             498.605
             .183558             499.394
             .185272             500.216
#---1----|----2----|----3----|----4----|----5----|----6----|----7----|----8----|----9----|---10----|
/FUNCT/180
New FUNCT 180
#                  X                   Y
                   0                   1
                 100                   1
#---1----|----2----|----3----|----4----|----5----|----6----|----7----|----8----|----9----|---10----|
/FUNCT/181
New FUNCT 181
#                  X                   Y
                   0                   0
                 .01                  20
#---1----|----2----|----3----|----4----|----5----|----6----|----7----|----8----|----9----|---10----|
/FUNCT/182
New FUNCT 182
#                  X                   Y
                   0                   0
                 .01                  20
#---1----|----2----|----3----|----4----|----5----|----6----|----7----|----8----|----9----|---10----|
/FUNCT/183
New FUNCT 183
#                  X                   Y
                   0                   0
                 .01                  20
#---1----|----2----|----3----|----4----|----5----|----6----|----7----|----8----|----9----|---10----|
/FUNCT/184
New FUNCT 184
#                  X                   Y
                   0                   0
                .001                   5
                .002                 -10
                .003                  10
                .004                 -10
                .005                  10
                .006                 -10
                .007                  10
                .008                 -10
                .009                  10
                 .01                 -10
#---1----|----2----|----3----|----4----|----5----|----6----|----7----|----8----|----9----|---10----|
/FUNCT/185
New FUNCT 185
#                  X                   Y
                   0                   3
                 .01                   3
#---1----|----2----|----3----|----4----|----5----|----6----|----7----|----8----|----9----|---10----|
#-  8. IMPOSED VELOCITIES:
#---1----|----2----|----3----|----4----|----5----|----6----|----7----|----8----|----9----|---10----|
/IMPVEL/1
V_Imposed
#funct_IDT       Dir   skew_ID sensor_ID  grnod_ID  frame_ID     Icoor
       180         X         0         0         0         0         0
#           Ascale_x            Fscale_Y              Tstart               Tstop
                   0                   1                   0                   0
#---1----|----2----|----3----|----4----|----5----|----6----|----7----|----8----|----9----|---10----|
/IMPVEL/2
rot_Y
#funct_IDT       Dir   skew_ID sensor_ID  grnod_ID  frame_ID     Icoor
       185        YY         0         0        25         0         0
#           Ascale_x            Fscale_Y              Tstart               Tstop
                   0                 500                   0                   0
/GRNOD/GRNOD/25
New GRNOD 25
        27
/GRNOD/GRNOD/27
New GRNOD 25 _nodes_subgroup_
        26
/GRNOD/NODE/26
New GRNOD 25 _nodes_subsubgroup_
         3         4        13        14
#---1----|----2----|----3----|----4----|----5----|----6----|----7----|----8----|----9----|---10----|
#-  9. IMPOSED DISPLACEMENTS:
#---1----|----2----|----3----|----4----|----5----|----6----|----7----|----8----|----9----|---10----|
/IMPDISP/1
DISP
#   Ifunct       DIR     Iskew   Isensor   Gnod_id     Frame     Icoor
         1         Y         0         0         0         0         0
#            Scale_x             Scale_y              Tstart               Tstop
                   0                   1                   0                   0
#---1----|----2----|----3----|----4----|----5----|----6----|----7----|----8----|----9----|---10----|
/IMPDISP/2
DISPX
#   Ifunct       DIR     Iskew   Isensor   Gnod_id     Frame     Icoor
       182         X         0         0         0         0         0
#            Scale_x             Scale_y              Tstart               Tstop
                   0                   4                   0                   0
#---1----|----2----|----3----|----4----|----5----|----6----|----7----|----8----|----9----|---10----|
/IMPDISP/3
DISP-X
#   Ifunct       DIR     Iskew   Isensor   Gnod_id     Frame     Icoor
       183         X         0         0         0         0         0
#            Scale_x             Scale_y              Tstart               Tstop
                   0                  -1                   0                   0
#---1----|----2----|----3----|----4----|----5----|----6----|----7----|----8----|----9----|---10----|
/IMPDISP/4
DISP_Z
#   Ifunct       DIR     Iskew   Isensor   Gnod_id     Frame     Icoor
         1         Z         0         0         0         0         0
#            Scale_x             Scale_y              Tstart               Tstop
                   0                   4                   0                   0
#---1----|----2----|----3----|----4----|----5----|----6----|----7----|----8----|----9----|---10----|
/IMPDISP/5
DISP-Z
#   Ifunct       DIR     Iskew   Isensor   Gnod_id     Frame     Icoor
         1         Z         0         0         0         0         0
#            Scale_x             Scale_y              Tstart               Tstop
                   0                  -1                   0                   0
#---1----|----2----|----3----|----4----|----5----|----6----|----7----|----8----|----9----|---10----|
/IMPDISP/6
DISP_Y
#   Ifunct       DIR     Iskew   Isensor   Gnod_id     Frame     Icoor
       181         Y         0         0         0         0         0
#            Scale_x             Scale_y              Tstart               Tstop
                   0                  -1                   0                   0
#---1----|----2----|----3----|----4----|----5----|----6----|----7----|----8----|----9----|---10----|
/IMPDISP/7
disp
#   Ifunct       DIR     Iskew   Isensor   Gnod_id     Frame     Icoor
       184         X         0         0         0         0         0
#            Scale_x             Scale_y              Tstart               Tstop
                   0                   1                   0                   0
#---1----|----2----|----3----|----4----|----5----|----6----|----7----|----8----|----9----|---10----|
#- 10. TIME HISTORIES:
#---1----|----2----|----3----|----4----|----5----|----6----|----7----|----8----|----9----|---10----|
/TH/PART/1
All part
#     var1      var2      var3      var4      var5      var6      var7      var8      var9     var10
DEF       
#     Obj1      Obj2      Obj3      Obj4      Obj5      Obj6      Obj7      Obj8      Obj9     Obj10
         1         2
#---1----|----2----|----3----|----4----|----5----|----6----|----7----|----8----|----9----|---10----|
/TH/SHEL/2
New TH 2
#     var1      var2      var3      var4      var5      var6      var7      var8      var9     var10
DEF       PLAS      STRAIN    USR5      
#     Elid   Skew_ID                                            Elname
         1         0New TH 2_group_0                                                                
        11         0                                                                                
#---1----|----2----|----3----|----4----|----5----|----6----|----7----|----8----|----9----|---10----|
/TH/NODE/3
New TH 3
#     var1      var2      var3      var4      var5      var6      var7      var8      var9     var10
DEF       
#    NODid     Iskew                                           NODname
         1         0New TH 3_group_0                                                                
         2         0New TH 3_group_0                                                                
         3         0New TH 3_group_0                                                                
         4         0New TH 3_group_0                                                                
        11         0New TH 3_group_0                                                                
        12         0New TH 3_group_0                                                                
        13         0New TH 3_group_0                                                                
        14         0New TH 3_group_0                                                                
#---1----|----2----|----3----|----4----|----5----|----6----|----7----|----8----|----9----|---10----|
#include qadiags.inc
#---1----|----2----|----3----|----4----|----5----|----6----|----7----|----8----|----9----|---10----|
/END
#---1----|----2----|----3----|----4----|----5----|----6----|----7----|----8----|----9----|---10----|
