#RADIOSS STARTER
# Copyright (C) 2023 Altair Engineering Inc. ("Holder")
# Model is licensed by Holder under CC BY-NC 4.0
# (https://creativecommons.org/licenses/by-nc/4.0/legalcode).
# Copyright (C) 2022 Altair Engineering Inc. ("Holder")
# Model is licensed by Holder under CC BY-NC 4.0
# (https://creativecommons.org/licenses/by-nc/4.0/legalcode).
#--------------------------------------------------------------------------------------------------|
#- RADIOSS DECK WRITTEN BY HyperCrash
#HyperCrash 9.0 
#Fri Aug  1 16:13:39 2008
#-
#-
#- DATE	Fri Aug  1 16:13:39 2008
#--------------------------------------------------------------------------------------------------|
/BEGIN
MODELE                                                                          
       100         0
                  Mg                  mm                   s
                  Mg                  mm                   s
#---1----|----2----|----3----|----4----|----5----|----6----|----7----|----8----|----9----|---10----|
#/UNIT/LENGTH/mm
#/UNIT/MASS/Mg
#/UNIT/TIME/s
#---1----|----2----|----3----|----4----|----5----|----6----|----7----|----8----|----9----|---10----|
#-  1. CONTROL CARDS:
#---1----|----2----|----3----|----4----|----5----|----6----|----7----|----8----|----9----|---10----|
/TITLE
box beam
#/MEMORY
#   MEMORY                        REAL%%
#         0                             0
/SPMD
#   DOMDEC      SPMD              DECMOT
         0         0                   0
/IOFLAG
#     IPRI     IRTYP     IGTYP     IOUTP    IOUTYY   IROOTYY                                 IRTYP_R
         5         0         0         0         0         0                                       0
/ANALY
#    N2D3D     INTEG   IPARITH      ISUB
         0         0         0         0
/DEF_SHELL
#  S_HOURG   S_SSTRN   S_THICK   S_PLAST    S_STRN                        I_SH3N
         1         0         0         0         0                             1
/SHFRA/V4
/RANDOM
#   Random-Noise
                   0
#---1----|----2----|----3----|----4----|----5----|----6----|----7----|----8----|----9----|---10----|
#---1----|----2----|----3----|----4----|----5----|----6----|----7----|----8----|----9----|---10----|
#-  2. MATERIALS:
#---1----|----2----|----3----|----4----|----5----|----6----|----7----|----8----|----9----|---10----|
/MAT/PLAS_JOHNS/1
STEEL
#        Init. dens.          Ref. dens.
                 .78                   0
#                  E                  Nu
              210000                  .3
#                  a                   b                   n             Eps_max              sigmax
                 206                 450                  .5                   0                   0
#                  c                EPS0       Icc   Fsmooth               F_CUT
                   0                   0         0         0                   0
#                  m              T_melt               rhoCp                 T_i
                   0                   0                   0                   0
/MAT/RIGID/2
STEEL
#        Init. dens.          Ref. dens.
                 .78                   0
#                  E                  Nu
              210000                  .3                 
/MAT/VOID/3

#---1----|----2----|----3----|----4----|----5----|----6----|----7----|----8----|----9----|---10----|
#-  3. NODES:
#---1----|----2----|----3----|----4----|----5----|----6----|----7----|----8----|----9----|---10----|
/NODE
         1                  30                   0                   0
         2                  30                  30                   0
         3                   0                  30                   0
         4                   0                   0                   0
         5                  30                   0                  30
         6                  30                  30                  30
         7                   0                  30                  30
         8                   0                   0                  30
         9                  30                  15                   0
        10                  15                   0                   0
        11                  30                   0                  15
        12                  15                  30                   0
        13                  30                  30                  15
        14                   0                  15                   0
        15                   0                  30                  15
        16                   0                   0                  15
        17                  30                  15                  30
        18                  15                   0                  30
        19                  15                  30                  30
        20                   0                  15                  30
# ... 712 like lines cut
#---1----|----2----|----3----|----4----|----5----|----6----|----7----|----8----|----9----|---10----|
#-  4. BOUNDARY CONDITIONS:
#---1----|----2----|----3----|----4----|----5----|----6----|----7----|----8----|----9----|---10----|
/BCS/1
BLOCAGE
#   trarot   Skew_id   Gnod_id
   111 111         0         2
#---1----|----2----|----3----|----4----|----5----|----6----|----7----|----8----|----9----|---10----|
/BCS/1
BLOCAGE
#   trarot   Skew_id   Gnod_id
   110 111         0         3
#---1----|----2----|----3----|----4----|----5----|----6----|----7----|----8----|----9----|---10----|
/GRNOD/NODE/2
BCS_group_2_of_NODE
         5         6         7         8        17        19        20        26        41        42
        44        45        47        48        51        69        71        73        75        96
        99       102       105       139       140       142       143       145       146       148
       149       182       183       185       190       191       193       194       195       197
       223       224       225       226       261       263       267       269       273       275
       281       333       334       339       340       345       346       351       352       440
       443       446       449       491       493       501       503       506       508       550
       551       553       555
#---1----|----2----|----3----|----4----|----5----|----6----|----7----|----8----|----9----|---10----|
#-  5. PARTS:
#---1----|----2----|----3----|----4----|----5----|----6----|----7----|----8----|----9----|---10----|
/PART/1
BRICK1
         1         1         3
#---1----|----2----|----3----|----4----|----5----|----6----|----7----|----8----|----9----|---10----|
# BRICK elements of /PART/1/BRICK1:
#---1----|----2----|----3----|----4----|----5----|----6----|----7----|----8----|----9----|---10----|
/BRICK/1
        75         8       149       449       148       147       448       666       447
        76       149        51       281       449       448       280       593       666
        77       148       449       279        50       447       666       592       278
        78       449       281       105       279       666       593       401       592
        79       147       448       666       447        49       277       591       276
        80       448       280       593       666       277       104       400       591
        81       447       666       592       278       276       591       399       103
        82       666       593       401       592       591       400       118       399
        83        51       195       508       281       280       507       667       593
        84       195        20       197       508       507       196       509       667
        85       281       508       352       105       593       667       641       401
        86       508       197        75       352       667       509       353       641
        87       280       507       667       593       104       349       639       400
        88       507       196       509       667       349        74       350       639
        89       593       667       641       401       400       639       424       118
        90       667       509       353       641       639       350       117       424
        92       279       105       340       498       592       401       633       668
        94       498       340        71       189       668       633       341       499
        96       592       401       633       668       399       118       420       631
        98       668       633       341       499       631       420       115       338
# ... 444 like lines cut
#---1----|----2----|----3----|----4----|----5----|----6----|----7----|----8----|----9----|---10----|
/PART/2
New Part 1
         1         2         3
#---1----|----2----|----3----|----4----|----5----|----6----|----7----|----8----|----9----|---10----|
# BRICK elements of /PART/2/New Part 1:
#---1----|----2----|----3----|----4----|----5----|----6----|----7----|----8----|----9----|---10----|
/BRICK/2
        91        50       279       498       187       278       592       668       497
        93       187       498       189        18       497       668       499       188
        95       278       592       668       497       103       399       631       337
        97       497       668       499       188       337       631       338        70
       123       103       399       631       337       325       623       672       531
       125       337       631       338        70       531       672       533       211
       127       325       623       672       531        66       326       532       210
       129       531       672       533       211       210       532       212        23
       203        18       189       496       186       188       499       682       495
       207       188       499       682       495        70       338       630       336
       235        70       338       630       336       211       533       686       529
       239       211       533       686       529        23       212       530       209
#---1----|----2----|----3----|----4----|----5----|----6----|----7----|----8----|----9----|---10----|
/PART/4
New Part 2
         1         2         3
#---1----|----2----|----3----|----4----|----5----|----6----|----7----|----8----|----9----|---10----|
# BRICK elements of /PART/4/New Part 2:
#---1----|----2----|----3----|----4----|----5----|----6----|----7----|----8----|----9----|---10----|
/BRICK/4
       406       484       176        64       320       707       480       318       618
       410       707       480       318       618       578       250        89       385
       420       320        64       215       540       618       318       535       709
       422       540       215        24       217       709       535       213       536
       424       618       318       535       709       385        89       304       609
       426       709       535       213       536       609       304        59       305
       438       578       250        89       385       711       433       247       576
       442       711       433       247       576       432       132        34       246
       452       385        89       304       609       576       247       468       713
       454       609       304        59       305       713       468       165       469
       456       576       247       468       713       246        34       163       467
       458       713       468       165       469       467       163        12       164
       532       217        24       214       538       536       213       534       723
       534       538       214        61       311       723       534       309       612
       536       536       213       534       723       305        59       303       608
       538       723       534       309       612       608       303        87       383
       564       305        59       303       608       469       165       466       727
       566       608       303        87       383       727       466       243       574
       568       469       165       466       727       164        12       162       465
       570       727       466       243       574       465       162        32       242
#---1----|----2----|----3----|----4----|----5----|----6----|----7----|----8----|----9----|---10----|
/PART/5
New Part 3
         1         2         3
#---1----|----2----|----3----|----4----|----5----|----6----|----7----|----8----|----9----|---10----|
# BRICK elements of /PART/5/New Part 3:
#---1----|----2----|----3----|----4----|----5----|----6----|----7----|----8----|----9----|---10----|
/BRICK/5
       391       387       615       705       599        91       313       513       289
       392       615       314       517       705       313        62       201       513
       393       599       705       514       290       289       513       199        54
       394       705       517       202       514       513       201        21       199
       447       314       614       712       517        62       312       515       201
       448       614       384       607       712       312        88       301       515
       449       517       712       516       202       201       515       200        21
       450       712       607       302       516       515       301        58       200
       503       290       514       719       598        54       199       510       288
       504       514       202       512       719       199        21       198       510
       505       598       719       594       378       288       510       282        82
       506       719       512       284       594       510       198        52       282
       559       202       516       726       512        21       200       511       198
       560       516       302       606       726       200        58       300       511
       561       512       726       595       284       198       511       283        52
       562       726       606       381       595       511       300        85       283
#---1----|----2----|----3----|----4----|----5----|----6----|----7----|----8----|----9----|---10----|
#-  6. SUBSETS:
#---1----|----2----|----3----|----4----|----5----|----6----|----7----|----8----|----9----|---10----|
/SUBSET/3
New_physical_part
#---1----|----2----|----3----|----4----|----5----|----6----|----7----|----8----|----9----|---10----|
#-  7. GEOMETRICAL SETS:
#---1----|----2----|----3----|----4----|----5----|----6----|----7----|----8----|----9----|---10----|
/PROP/SOLID/1
SOLID1
#   Isolid    Ismstr               Icpre               Inpts              Iframe                  dn
         1         0                   0                   0                   2                   0
#                q_a                 q_b                   h
                 1.1                 .05                  .1
#             dt_min
                   0
#---1----|----2----|----3----|----4----|----5----|----6----|----7----|----8----|----9----|---10----|
#-  8. FUNCTIONS:
#---1----|----2----|----3----|----4----|----5----|----6----|----7----|----8----|----9----|---10----|
/FUNCT/1
New_function
#                  X                   Y
                   0                   0    
                 100                   5                                                        
#---1----|----2----|----3----|----4----|----5----|----6----|----7----|----8----|----9----|---10----|
#-  9. RIGID BODIES:
#---1----|----2----|----3----|----4----|----5----|----6----|----7----|----8----|----9----|---10----|
#---1----|----2----|----3----|----4----|----5----|----6----|----7----|----8----|----9----|---10----|
#- 10. IMPOSED VELOCITIES:
#---1----|----2----|----3----|----4----|----5----|----6----|----7----|----8----|----9----|---10----|
/IMPVEL/1
VELOCITY
#   Ifunct       DIR     Iskew   Isensor   Gnod_id    Iframe
         1         Z         0         0         3         0
#            Scale_x             Scale_y              Tstart               Tstop
                   0                   0                   0                   0
/GRNOD/NODE/3
IMPVEL_group_3_of_NODE
         1         2         3         4         9        10        14        28        29        31
        35        37        38       126       127       129       130       133       135       136
       150       151       152       154       155       156       170       171       172       234
       236       240       248       252       254       426       429       435       450       452
       455       457       475       477
#---1----|----2----|----3----|----4----|----5----|----6----|----7----|----8----|----9----|---10----|
#- 11. NODE GROUPS:
#---1----|----2----|----3----|----4----|----5----|----6----|----7----|----8----|----9----|---10----|
/GRNOD/NODE/1
BCS_group_1_of_NODE
         6         7        17        19        20        26        44        45        47        48
        69        73        75        99       102       142       143       145       146       183
       185       190       191       193       194       197       223       225       226       267
       269       273       275       334       345       346       351       443       446       493
       501       503       506       551       555
#---1----|----2----|----3----|----4----|----5----|----6----|----7----|----8----|----9----|---10----|
#include qadiags.inc
/END
#---1----|----2----|----3----|----4----|----5----|----6----|----7----|----8----|----9----|---10----|
