#RADIOSS STARTER
# Copyright (C) 2022 Altair Engineering Inc. ("Holder")
# Model is licensed by Holder under CC BY-NC 4.0
# (https://creativecommons.org/licenses/by-nc/4.0/legalcode).
#--------------------------------------------------------------------------------------------------|
#- RADIOSS DECK WRITTEN BY HyperCrash
#HyperCrash 2019.1 (64 bits) 
#Thu Mar  5 16:45:16 2020
#-
# INPUT DECK / GENERATED BY  MODEDIT V4.2c
#
#DATE	Fri Apr  5 11:36:44 2002
#
# RADIOSS STARTER INPUT DECK - BLOCK FORMAT
#-
#-
#
#-
#- DATE	Thu Mar  5 16:45:16 2020
#--------------------------------------------------------------------------------------------------|
#---1----|----2----|----3----|----4----|----5----|----6----|----7----|----8----|----9----|---10----|
/BEGIN
CONV_EL6                                                                        
      2019         0
                  kg                   m                   s
                  kg                   m                   s
#---1----|----2----|----3----|----4----|----5----|----6----|----7----|----8----|----9----|---10----|
#-  1. CONTROL CARDS:
#---1----|----2----|----3----|----4----|----5----|----6----|----7----|----8----|----9----|---10----|
/TITLE
  Convergence elastique
#---1----|----2----|----3----|----4----|----5----|----6----|----7----|----8----|----9----|---10----|
#include qadiags.inc
#---1----|----2----|----3----|----4----|----5----|----6----|----7----|----8----|----9----|---10----|
/ANALY
#    N2D3D             IPARITH      ISUB
         0                   0         0
#---1----|----2----|----3----|----4----|----5----|----6----|----7----|----8----|----9----|---10----|
/DEF_SHELL
#   ISHELL    ISMSTR    ITHICK     IPLAS   ISTRAIN                        I_SH3N     IDRIL
         0         0         0         0         0                             1         0
#---1----|----2----|----3----|----4----|----5----|----6----|----7----|----8----|----9----|---10----|
/DEF_SOLID
#  I_SOLID    ISMSTR             ISTRAIN                                  IFRAME
        14         0                   0                                       2
#---1----|----2----|----3----|----4----|----5----|----6----|----7----|----8----|----9----|---10----|
/IOFLAG
#     IPRI               IGTYP     IOUTP    IOUTYY   IROOTYY     IDROT
         0                   0         0         0         0         0
#---1----|----2----|----3----|----4----|----5----|----6----|----7----|----8----|----9----|---10----|
/RANDOM
#       Random-Noise                Seed
                   0                   0
#---1----|----2----|----3----|----4----|----5----|----6----|----7----|----8----|----9----|---10----|
/SPMD
#   DOMDEC     Nproc              Dkword             Nthread
         0         0                   0                   1
#---1----|----2----|----3----|----4----|----5----|----6----|----7----|----8----|----9----|---10----|
/SHFRA/V4
#---1----|----2----|----3----|----4----|----5----|----6----|----7----|----8----|----9----|---10----|
#-  2. MATERIALS:
#---1----|----2----|----3----|----4----|----5----|----6----|----7----|----8----|----9----|---10----|
/MAT/ELAST/1
material number _      1
#        Init. dens.          Ref. dens.
             7.34E-4                   0
#                  E                  nu
            20000000                 .25
#---1----|----2----|----3----|----4----|----5----|----6----|----7----|----8----|----9----|---10----|
#-  3. NODES:
#---1----|----2----|----3----|----4----|----5----|----6----|----7----|----8----|----9----|---10----|
/NODE
         6                  10                   9                   0
        23                  10                   6                   0
        66                  10                   3                   0
       606                  10                  17                   0
       660                  10                  20                   0
      1115                  10                  14                   0
      1457                  10                  19                   0
      1458                  10                  16                   0
      1459                  10                  13                   0
      1460                  10                  10                   0
      1461                  10                   7                   0
      1462                  10                   4                   0
      1795                  10                  20                   1
      1796                  10                  18                   1
      1797                   0                  18                   1
      1798                   0                  20                   1
      1799                  10                  20                  -1
      1800                  10                  18                  -1
      1801                   0                  18                  -1
      1802                   0                  20                  -1
# ... 324 like lines cut
#---1----|----2----|----3----|----4----|----5----|----6----|----7----|----8----|----9----|---10----|
#-  4. BOUNDARY CONDITIONS:
#---1----|----2----|----3----|----4----|----5----|----6----|----7----|----8----|----9----|---10----|
/BCS/1
fixed
#  Tra rot   skew_ID  grnod_ID
   111 111         0         2
/GRNOD/NODE/2
N_fix
      1797      1798      1801      1802      1805      1806      1810      1811      1817      1818
      1822      1823      1827      1833      1839      1842      1851      1862      1873      1884
      1887      1907      1917      1938      1959      1980      2001      2022      2025      2065
      2086      2107
#---1----|----2----|----3----|----4----|----5----|----6----|----7----|----8----|----9----|---10----|
#-  5. PARTS:
#---1----|----2----|----3----|----4----|----5----|----6----|----7----|----8----|----9----|---10----|
/PART/15
s1
         7         1         0
#---1----|----2----|----3----|----4----|----5----|----6----|----7----|----8----|----9----|---10----|
# BRICK elements of /PART/15/s1:
#---1----|----2----|----3----|----4----|----5----|----6----|----7----|----8----|----9----|---10----|
/BRICK/15
         1      1795      1796      1797      1795      1799      1800      1801      1799
         2      1797      1798      1795      1797      1801      1802      1799      1801
#---1----|----2----|----3----|----4----|----5----|----6----|----7----|----8----|----9----|---10----|
/PART/16
s2
         8         1         0
#---1----|----2----|----3----|----4----|----5----|----6----|----7----|----8----|----9----|---10----|
# BRICK elements of /PART/16/s2:
#---1----|----2----|----3----|----4----|----5----|----6----|----7----|----8----|----9----|---10----|
/BRICK/16
         3      1807      1805      1806      1807      1809      1810      1811      1809
         4      1806      1808      1807      1806      1811      1812      1809      1811
         5      1808      1803      1804      1808      1812      1813      1814      1812
         6      1804      1807      1808      1804      1814      1809      1812      1814
#---1----|----2----|----3----|----4----|----5----|----6----|----7----|----8----|----9----|---10----|
/PART/17
s3
         9         1         0
#---1----|----2----|----3----|----4----|----5----|----6----|----7----|----8----|----9----|---10----|
# BRICK elements of /PART/17/s3:
#---1----|----2----|----3----|----4----|----5----|----6----|----7----|----8----|----9----|---10----|
/BRICK/17
         7      1819      1817      1818      1819      1821      1822      1823      1821
         8      1818      1820      1819      1818      1823      1824      1821      1823
         9      1820      1815      1816      1820      1824      1825      1826      1824
        10      1816      1819      1820      1816      1826      1821      1824      1826
#---1----|----2----|----3----|----4----|----5----|----6----|----7----|----8----|----9----|---10----|
/PART/18
s4
        10         1         0
#---1----|----2----|----3----|----4----|----5----|----6----|----7----|----8----|----9----|---10----|
# BRICK elements of /PART/18/s4:
#---1----|----2----|----3----|----4----|----5----|----6----|----7----|----8----|----9----|---10----|
/BRICK/18
        11      1827      1828      1834      1827      1839      1840      1841      1839
        12      1834      1833      1827      1834      1841      1842      1839      1841
        13      1828      1829      1835      1828      1840      1843      1844      1840
        14      1835      1834      1828      1835      1844      1841      1840      1844
        15      1829      1830      1836      1829      1843      1845      1846      1843
        16      1836      1835      1829      1836      1846      1844      1843      1846
        17      1830      1831      1837      1830      1845      1847      1848      1845
        18      1837      1836      1830      1837      1848      1846      1845      1848
        19      1831      1832      1838      1831      1847      1849      1850      1847
        20      1838      1837      1831      1838      1850      1848      1847      1850
#---1----|----2----|----3----|----4----|----5----|----6----|----7----|----8----|----9----|---10----|
/PART/19
s5
        11         1         0
#---1----|----2----|----3----|----4----|----5----|----6----|----7----|----8----|----9----|---10----|
# BRICK elements of /PART/19/s5:
#---1----|----2----|----3----|----4----|----5----|----6----|----7----|----8----|----9----|---10----|
/BRICK/19
        21      1851      1852      1863      1851      1884      1885      1886      1884
        22      1863      1862      1851      1863      1886      1887      1884      1886
        23      1852      1853      1864      1852      1885      1888      1889      1885
        24      1864      1863      1852      1864      1889      1886      1885      1889
        25      1853      1854      1865      1853      1888      1890      1891      1888
        26      1865      1864      1853      1865      1891      1889      1888      1891
        27      1854      1855      1866      1854      1890      1892      1893      1890
        28      1866      1865      1854      1866      1893      1891      1890      1893
        29      1855      1856      1867      1855      1892      1894      1895      1892
        30      1867      1866      1855      1867      1895      1893      1892      1895
        31      1856      1857      1868      1856      1894      1896      1897      1894
        32      1868      1867      1856      1868      1897      1895      1894      1897
        33      1857      1858      1869      1857      1896      1898      1899      1896
        34      1869      1868      1857      1869      1899      1897      1896      1899
        35      1858      1859      1870      1858      1898      1900      1901      1898
        36      1870      1869      1858      1870      1901      1899      1898      1901
        37      1859      1860      1871      1859      1900      1902      1903      1900
        38      1871      1870      1859      1871      1903      1901      1900      1903
        39      1860      1861      1872      1860      1902      1904      1905      1902
        40      1872      1871      1860      1872      1905      1903      1902      1905
# ... 20 like lines cut
#---1----|----2----|----3----|----4----|----5----|----6----|----7----|----8----|----9----|---10----|
/PART/20
s6
        12         1         0
#---1----|----2----|----3----|----4----|----5----|----6----|----7----|----8----|----9----|---10----|
# BRICK elements of /PART/20/s6:
#---1----|----2----|----3----|----4----|----5----|----6----|----7----|----8----|----9----|---10----|
/BRICK/20
        61      1917      1918      1939      1917      2022      2023      2024      2022
        62      1939      1938      1917      1939      2024      2025      2022      2024
        63      1918      1919      1940      1918      2023      2026      2027      2023
        64      1940      1939      1918      1940      2027      2024      2023      2027
        65      1919      1920      1941      1919      2026      2028      2029      2026
        66      1941      1940      1919      1941      2029      2027      2026      2029
        67      1920      1921      1942      1920      2028      2030      2031      2028
        68      1942      1941      1920      1942      2031      2029      2028      2031
        69      1921      1922      1943      1921      2030      2032      2033      2030
        70      1943      1942      1921      1943      2033      2031      2030      2033
        71      1922      1923      1944      1922      2032      2034      2035      2032
        72      1944      1943      1922      1944      2035      2033      2032      2035
        73      1923      1924      1945      1923      2034      2036      2037      2034
        74      1945      1944      1923      1945      2037      2035      2034      2037
        75      1924      1925      1946      1924      2036      2038      2039      2036
        76      1946      1945      1924      1946      2039      2037      2036      2039
        77      1925      1926      1947      1925      2038      2040      2041      2038
        78      1947      1946      1925      1947      2041      2039      2038      2041
        79      1926      1927      1948      1926      2040      2042      2043      2040
        80      1948      1947      1926      1948      2043      2041      2040      2043
# ... 140 like lines cut
#---1----|----2----|----3----|----4----|----5----|----6----|----7----|----8----|----9----|---10----|
#-  6. GEOMETRICAL SETS:
#---1----|----2----|----3----|----4----|----5----|----6----|----7----|----8----|----9----|---10----|
/PROP/SOLID/7
s1
#   Isolid    Ismstr               Icpre               Inpts    Itetra    Iframe                  dn
         0         0                   0                   0         0         0                   0
#                q_a                 q_b                   h            LAMBDA_V                MU_V
                   0                   0                   0                   0                   0
#             dt_min   istrain      IHKT
                   0         0         0
#---1----|----2----|----3----|----4----|----5----|----6----|----7----|----8----|----9----|---10----|
/PROP/SOLID/8
s2
#   Isolid    Ismstr               Icpre               Inpts    Itetra    Iframe                  dn
         0         0                   0                   0         0         0                   0
#                q_a                 q_b                   h            LAMBDA_V                MU_V
                   0                   0                   0                   0                   0
#             dt_min   istrain      IHKT
                   0         0         0
#---1----|----2----|----3----|----4----|----5----|----6----|----7----|----8----|----9----|---10----|
/PROP/SOLID/9
s3
#   Isolid    Ismstr               Icpre               Inpts    Itetra    Iframe                  dn
         0         0                   0                   0         0         0                   0
#                q_a                 q_b                   h            LAMBDA_V                MU_V
                   0                   0                   0                   0                   0
#             dt_min   istrain      IHKT
                   0         0         0
#---1----|----2----|----3----|----4----|----5----|----6----|----7----|----8----|----9----|---10----|
/PROP/SOLID/10
s4
#   Isolid    Ismstr               Icpre               Inpts    Itetra    Iframe                  dn
         0         0                   0                   0         0         0                   0
#                q_a                 q_b                   h            LAMBDA_V                MU_V
                   0                   0                   0                   0                   0
#             dt_min   istrain      IHKT
                   0         0         0
#---1----|----2----|----3----|----4----|----5----|----6----|----7----|----8----|----9----|---10----|
/PROP/SOLID/11
s5
#   Isolid    Ismstr               Icpre               Inpts    Itetra    Iframe                  dn
         0         0                   0                   0         0         0                   0
#                q_a                 q_b                   h            LAMBDA_V                MU_V
                   0                   0                   0                   0                   0
#             dt_min   istrain      IHKT
                   0         0         0
#---1----|----2----|----3----|----4----|----5----|----6----|----7----|----8----|----9----|---10----|
/PROP/SOLID/12
s6
#   Isolid    Ismstr               Icpre               Inpts    Itetra    Iframe                  dn
         0         0                   0                   0         0         0                   0
#                q_a                 q_b                   h            LAMBDA_V                MU_V
                   0                   0                   0                   0                   0
#             dt_min   istrain      IHKT
                   0         0         0
#---1----|----2----|----3----|----4----|----5----|----6----|----7----|----8----|----9----|---10----|
#-  7. FUNCTIONS:
#---1----|----2----|----3----|----4----|----5----|----6----|----7----|----8----|----9----|---10----|
/FUNCT/1
const
#                  X                   Y
                   0               40000
                1000               40000
#---1----|----2----|----3----|----4----|----5----|----6----|----7----|----8----|----9----|---10----|
#-  8. CONCENTRATED LOADS:
#---1----|----2----|----3----|----4----|----5----|----6----|----7----|----8----|----9----|---10----|
/CLOAD/1
concentrated loads.
#funct_IDT       Dir   skew_ID sensor_ID  grnod_ID                       Ascalex             Fscaley
         1         Z         0         0         9                             1                   1
/GRNOD/GRNOD/9
Set_10
         3         4         5         6         7         8
/GRNOD/NODE/3
R1_master
      1457
/GRNOD/NODE/4
R2_master
      1458
/GRNOD/NODE/5
R3_master
      1459
/GRNOD/NODE/6
R4_master
      1460
/GRNOD/NODE/7
R5_master
      1461
/GRNOD/NODE/8
R6_master
      1462
#---1----|----2----|----3----|----4----|----5----|----6----|----7----|----8----|----9----|---10----|
#-  9. RIGID BODIES:
#---1----|----2----|----3----|----4----|----5----|----6----|----7----|----8----|----9----|---10----|
/RBODY/713
R1
#     RBID     ISENS     NSKEW    ISPHER                MASS   Gnod_id     IKREM      ICOG   Surf_id
      1457         0         0         0                   0        10         0         0         0
#                Jxx                 Jyy                 Jzz
                   0                   0                   0
#                Jxy                 Jyz                 Jxz
                   0                   0                   0
#  Ioptoff   Iexpams
         0         0
/GRNOD/NODE/10
N_1
       660      1795      1796      1799      1800
#---1----|----2----|----3----|----4----|----5----|----6----|----7----|----8----|----9----|---10----|
/RBODY/714
R2
#     RBID     ISENS     NSKEW    ISPHER                MASS   Gnod_id     IKREM      ICOG   Surf_id
      1458         0         0         0                   0        11         0         0         0
#                Jxx                 Jyy                 Jzz
                   0                   0                   0
#                Jxy                 Jyz                 Jxz
                   0                   0                   0
#  Ioptoff   Iexpams
         0         0
/GRNOD/NODE/11
N_2
       606      1803      1804      1813      1814
#---1----|----2----|----3----|----4----|----5----|----6----|----7----|----8----|----9----|---10----|
/RBODY/715
R3
#     RBID     ISENS     NSKEW    ISPHER                MASS   Gnod_id     IKREM      ICOG   Surf_id
      1459         0         0         0                   0        12         0         0         0
#                Jxx                 Jyy                 Jzz
                   0                   0                   0
#                Jxy                 Jyz                 Jxz
                   0                   0                   0
#  Ioptoff   Iexpams
         0         0
/GRNOD/NODE/12
N_3
      1115      1815      1816      1825      1826
#---1----|----2----|----3----|----4----|----5----|----6----|----7----|----8----|----9----|---10----|
/RBODY/716
R4
#     RBID     ISENS     NSKEW    ISPHER                MASS   Gnod_id     IKREM      ICOG   Surf_id
      1460         0         0         0                   0        13         0         0         0
#                Jxx                 Jyy                 Jzz
                   0                   0                   0
#                Jxy                 Jyz                 Jxz
                   0                   0                   0
#  Ioptoff   Iexpams
         0         0
/GRNOD/NODE/13
N_4
         6      1832      1838      1849      1850
#---1----|----2----|----3----|----4----|----5----|----6----|----7----|----8----|----9----|---10----|
/RBODY/717
R5
#     RBID     ISENS     NSKEW    ISPHER                MASS   Gnod_id     IKREM      ICOG   Surf_id
      1461         0         0         0                   0        14         0         0         0
#                Jxx                 Jyy                 Jzz
                   0                   0                   0
#                Jxy                 Jyz                 Jxz
                   0                   0                   0
#  Ioptoff   Iexpams
         0         0
/GRNOD/NODE/14
N_5
        23      1861      1872      1883      1904      1905      1916
#---1----|----2----|----3----|----4----|----5----|----6----|----7----|----8----|----9----|---10----|
/RBODY/718
R6
#     RBID     ISENS     NSKEW    ISPHER                MASS   Gnod_id     IKREM      ICOG   Surf_id
      1462         0         0         0                   0        15         0         0         0
#                Jxx                 Jyy                 Jzz
                   0                   0                   0
#                Jxy                 Jyz                 Jxz
                   0                   0                   0
#  Ioptoff   Iexpams
         0         0
/GRNOD/NODE/15
N_6
        66      1937      1958      1979      2000      2021      2062      2063      2084      2105
      2126
#---1----|----2----|----3----|----4----|----5----|----6----|----7----|----8----|----9----|---10----|
#- 10. TIME HISTORIES:
#---1----|----2----|----3----|----4----|----5----|----6----|----7----|----8----|----9----|---10----|
/TH/NODE/1
node
#     var1      var2      var3      var4      var5      var6      var7      var8      var9     var10
DEF       
#    NODid     Iskew                                           NODname
      1457         0R1_master                                                                       
      1458         0R2_master                                                                       
      1459         0R3_master                                                                       
      1460         0R4_master                                                                       
      1461         0R5_master                                                                       
      1462         0R6_master                                                                       
#---1----|----2----|----3----|----4----|----5----|----6----|----7----|----8----|----9----|---10----|
/END
#---1----|----2----|----3----|----4----|----5----|----6----|----7----|----8----|----9----|---10----|
