#RADIOSS STARTER
#---1----|----2----|----3----|----4----|----5----|----6----|----7----|----8----|----9----|---10----|
/BEGIN
B_POKE_9                                                                        
      2018         0
                   g                  mm                  ms
                   g                  mm                  ms
#---1----|----2----|----3----|----4----|----5----|----6----|----7----|----8----|----9----|---10----|
#-  1. CONTROL CARDS:
#---1----|----2----|----3----|----4----|----5----|----6----|----7----|----8----|----9----|---10----|
/TITLE
Test LAW27
#---1----|----2----|----3----|----4----|----5----|----6----|----7----|----8----|----9----|---10----|
#include qadiags.inc
#---1----|----2----|----3----|----4----|----5----|----6----|----7----|----8----|----9----|---10----|
/RANDOM
#       Random-Noise                Seed
                   0                   0
#---1----|----2----|----3----|----4----|----5----|----6----|----7----|----8----|----9----|---10----|
/SPMD
#   DOMDEC     Nproc              Dkword             Nthread
         0         0                   0                   0
#---1----|----2----|----3----|----4----|----5----|----6----|----7----|----8----|----9----|---10----|
/IOFLAG
#     IPRI               IGTYP     IOUTP    IOUTYY   IROOTYY     IDROT
         2                   0         0         0         0         0
#---1----|----2----|----3----|----4----|----5----|----6----|----7----|----8----|----9----|---10----|
/ANALY
#    N2D3D             IPARITH      ISUB
         0                   0         0
#---1----|----2----|----3----|----4----|----5----|----6----|----7----|----8----|----9----|---10----|
/DEF_SOLID
#  I_SOLID    ISMSTR             ISTRAIN                                  IFRAME
         0         0                   0                                       0
#---1----|----2----|----3----|----4----|----5----|----6----|----7----|----8----|----9----|---10----|
/DEF_SHELL
#   ISHELL    ISMSTR    ITHICK     IPLAS   ISTRAIN                        I_SH3N     IDRIL
         0         0         0         0         1                             2         0
#---1----|----2----|----3----|----4----|----5----|----6----|----7----|----8----|----9----|---10----|
#-  2. MATERIALS:
#---1----|----2----|----3----|----4----|----5----|----6----|----7----|----8----|----9----|---10----|
/MAT/PLAS_BRIT/1
Mat 1
#              RHO_I
               .0028
#                  E                  NU
               71000                 .33
#                  a                   b                   n                                SIG_max0
                 290               562.3                 .63                                     425
#                  c           EPS_DOT_0       ICC
                   0                   0         0
#             EPS_t1              EPS_m1              d_max1              EPS_f1
                 .14                 .15                .999                .151
#             EPS_t2              EPS_m2              d_max2              EPS_f2
                 .14                 .15                .999                .151
#---1----|----2----|----3----|----4----|----5----|----6----|----7----|----8----|----9----|---10----|
/MAT/PLAS_BRIT/2
Mat 2
#              RHO_I
               .0028
#                  E                  NU
               16600                 .33
#                  a                   b                   n                                SIG_max0
                 220                 420                  .6                                     270
#                  c           EPS_DOT_0       ICC
                   0                   0         0
#             EPS_t1              EPS_m1              d_max1              EPS_f1
                 .07                 .08                .999                .081
#             EPS_t2              EPS_m2              d_max2              EPS_f2
                 .07                 .08                .999                .081
#---1----|----2----|----3----|----4----|----5----|----6----|----7----|----8----|----9----|---10----|
#-  3. NODES:
#---1----|----2----|----3----|----4----|----5----|----6----|----7----|----8----|----9----|---10----|
/NODE
         1                   0                   0                   0
         2                  10                   0                   0
         3                  10                  10                   0
         4                   0                  10                   0
         5                  12                   0                   0
         6                  22                   0                   0
         7                  22                  10                   0
         8                  12                  10                   0
#---1----|----2----|----3----|----4----|----5----|----6----|----7----|----8----|----9----|---10----|
#-  4. BOUNDARY CONDITIONS:
#---1----|----2----|----3----|----4----|----5----|----6----|----7----|----8----|----9----|---10----|
/BCS/1
Anchorage
#  Tra rot   skew_ID  grnod_ID
   111 111         0         1
/GRNOD/GRNOD/1
Anchorage
         3
/GRNOD/GRNOD/3
Anchorage
         2
/GRNOD/NODE/2
Anchorage
         1         2         5         6
#---1----|----2----|----3----|----4----|----5----|----6----|----7----|----8----|----9----|---10----|
#-  5. PARTS:
#---1----|----2----|----3----|----4----|----5----|----6----|----7----|----8----|----9----|---10----|
/PART/20
Part 20
        20         1       264
#---1----|----2----|----3----|----4----|----5----|----6----|----7----|----8----|----9----|---10----|
# SHELL elements of /PART/20/panneau_sup1_3.0mm:
#---1----|----2----|----3----|----4----|----5----|----6----|----7----|----8----|----9----|---10----|
/SHELL/20
         1         1         2         3         4
#---1----|----2----|----3----|----4----|----5----|----6----|----7----|----8----|----9----|---10----|
/PART/261
part 21
       201         2       264
#---1----|----2----|----3----|----4----|----5----|----6----|----7----|----8----|----9----|---10----|
# SHELL elements of /PART/261/panneau_affaibli:
#---1----|----2----|----3----|----4----|----5----|----6----|----7----|----8----|----9----|---10----|
/SHELL/261
         2         5         6         7         8
#---1----|----2----|----3----|----4----|----5----|----6----|----7----|----8----|----9----|---10----|
#-  6. SUBSETS:
#---1----|----2----|----3----|----4----|----5----|----6----|----7----|----8----|----9----|---10----|
/SUBSET/264
Panel
#---1----|----2----|----3----|----4----|----5----|----6----|----7----|----8----|----9----|---10----|
#-  7. GEOMETRICAL SETS:
#---1----|----2----|----3----|----4----|----5----|----6----|----7----|----8----|----9----|---10----|
/PROP/SHELL/20
Shell 20
#   Ishell    Ismstr     Ish3n    Idrill                            P_thick_fail
         4         0         0         0                                       0
#                 hm                  hf                  hr                  dm                  dn
                 .01                 .01                 .01                   0                   0
#        N   Istrain               Thick              Ashear              Ithick     Iplas
         5         0                   3          .833333333                   1         1
#---1----|----2----|----3----|----4----|----5----|----6----|----7----|----8----|----9----|---10----|
/PROP/SHELL/201
shell 201
#   Ishell    Ismstr     Ish3n    Idrill                            P_thick_fail
         4         0         0         0                                       0
#                 hm                  hf                  hr                  dm                  dn
                 .01                 .01                 .01                   0                   0
#        N   Istrain               Thick              Ashear              Ithick     Iplas
         5         0                   3          .833333333                   1         1
#---1----|----2----|----3----|----4----|----5----|----6----|----7----|----8----|----9----|---10----|
#-  8. FUNCTIONS:
#---1----|----2----|----3----|----4----|----5----|----6----|----7----|----8----|----9----|---10----|
/FUNCT/1
Load
#                  X                   Y
                   0                   0
                   1                  15
                 100                  15
#---1----|----2----|----3----|----4----|----5----|----6----|----7----|----8----|----9----|---10----|
#-  9. IMPOSED VELOCITIES:
#---1----|----2----|----3----|----4----|----5----|----6----|----7----|----8----|----9----|---10----|
/IMPVEL/1
Imposed motion
#funct_IDT       Dir   skew_ID sensor_ID  grnod_ID  frame_ID     Icoor
         1         Y         0         0         4         0         0
#           Ascale_x            Fscale_Y              Tstart               Tstop
                   0                   1                   0                   0
/GRNOD/GRNOD/4
Imposed motion
         6
/GRNOD/GRNOD/6
Imposed motion
         5
/GRNOD/NODE/5
Imposed motion
         3         4         7         8
#---1----|----2----|----3----|----4----|----5----|----6----|----7----|----8----|----9----|---10----|
#- 10. TIME HISTORIES:
#---1----|----2----|----3----|----4----|----5----|----6----|----7----|----8----|----9----|---10----|
/TH/PART/31
Part selection
#     var1      var2      var3      var4      var5      var6      var7      var8      var9     var10
DEF       
#     Obj1      Obj2      Obj3      Obj4      Obj5      Obj6      Obj7      Obj8      Obj9     Obj10
        20       261
#---1----|----2----|----3----|----4----|----5----|----6----|----7----|----8----|----9----|---10----|
/TH/SHEL/43
sh
#     var1      var2      var3      var4      var5      var6      var7      var8      var9     var10
DEF       
#     Elid   Skew_ID                                            Elname
         1         0                                                                                
         2         0                                                                                
#---1----|----2----|----3----|----4----|----5----|----6----|----7----|----8----|----9----|---10----|
/END
#---1----|----2----|----3----|----4----|----5----|----6----|----7----|----8----|----9----|---10----|
