#RADIOSS STARTER
#--------------------------------------------------------------------------------------------------|
#- RADIOSS DECK WRITTEN BY HyperCrash
#HyperCrash 9.0 (64 bits) 
#Thu Jul 31 16:13:35 2008
#-
#-
#- DATE	Thu Jul 31 16:13:35 2008
#--------------------------------------------------------------------------------------------------|
/BEGIN
BOXBEAM_SUB
       100         0                   
                  kg                   m                   s
                                                                  	  
#---1----|----2----|----3----|----4----|----5----|----6----|----7----|----8----|----9----|---10----|
#/UNIT/LENGTH/m
#/UNIT/MASS/kg
#/UNIT/TIME/s
#---1----|----2----|----3----|----4----|----5----|----6----|----7----|----8----|----9----|---10----|
#-  1. CONTROL CARDS:
#---1----|----2----|----3----|----4----|----5----|----6----|----7----|----8----|----9----|---10----|
/TITLE
box beam
/MEMORY
#   MEMORY                        REAL%%
         0                             0
/SPMD
#   DOMDEC      SPMD              DECMOT
         0         0                   0
/IOFLAG
#     IPRI     IRTYP     IGTYP     IOUTP    IOUTYY   IROOTYY                                 IRTYP_R
         5         0         0         0         0         0                                       0
/ANALY
#    N2D3D     INTEG   IPARITH      ISUB
         0         0         0         0
/DEF_SHELL
#  S_HOURG   S_SSTRN   S_THICK   S_PLAST    S_STRN                        I_SH3N
         1         0         0         0         0                             1
/SHFRA/V4
/RANDOM
#   Random-Noise
        .00100000005
#---1----|----2----|----3----|----4----|----5----|----6----|----7----|----8----|----9----|---10----|
//SUBMODEL/1


#---1----|----2----|----3----|----4----|----5----|----6----|----7----|----8----|----9----|---10----|
#-  2. MATERIALS:
#---1----|----2----|----3----|----4----|----5----|----6----|----7----|----8----|----9----|---10----|
/MAT/PLAS_JOHNS/2
STEEL
#        Init. dens.          Ref. dens.
                 .78                   0
#                  E                  Nu
              210000                  .3
#                  a                   b                   n             Eps_max              sigmax
                 206                 450                  .5                   0                   0
#                  c                EPS0       Icc   Fsmooth               F_CUT
                   0                   0         0         0                   0
#                  m              T_melt               rhoCp                 T_i
                   0                   0                   0                   0
#---1----|----2----|----3----|----4----|----5----|----6----|----7----|----8----|----9----|---10----|
#-  3. NODES:
#---1----|----2----|----3----|----4----|----5----|----6----|----7----|----8----|----9----|---10----|
/NODE
         1                25.4                   0                   0
         2                25.4               3.175                   0
         3                25.4                6.35                   0
         4                25.4               9.525                   0
         5                25.4                12.7                   0
         6                25.4             15.8749                   0
         7                25.4             19.0499                   0
         8                25.4                   0             3.17187
         9                25.4               3.175             3.17187
        10                25.4                6.35             3.17187
        11                25.4               9.525             3.17187
        12                25.4                12.7             3.17187
        13                25.4             15.8749             3.17187
        14                25.4             19.0499             3.17187
        15                25.4                   0             6.34375
        16                25.4               3.175             6.34375
        17                25.4                6.35             6.34375
        18                25.4               9.525             6.34375
        19                25.4                12.7             6.34375
        20                25.4             15.8749             6.34375
# ... 967 like lines cut
#---1----|----2----|----3----|----4----|----5----|----6----|----7----|----8----|----9----|---10----|
#-  4. BOUNDARY CONDITIONS:
#---1----|----2----|----3----|----4----|----5----|----6----|----7----|----8----|----9----|---10----|
/BCS/1
symx
#   trarot   Skew_id   Gnod_id
   100 011         0         2
/GRNOD/NODE/2
symx
       471       479       487       495       503       511       519       527       535       543
       551       559       567       575       583       591       599       607       615       623
       631       639       647       655       663       671       679       687       695       703
       711       719       727       735       743       751       759       767       775       783
       791       799       807       815       823       831       839       847       855       863
       871       879       887       895       903       911       919       927       935       943
       951       959       967       975
#---1----|----2----|----3----|----4----|----5----|----6----|----7----|----8----|----9----|---10----|
/BCS/2
symy
#   trarot   Skew_id   Gnod_id
   010 101         0         3
/GRNOD/NODE/3
symy
         8        15        22        29        36        43        50        57        64        71
        78        85        92        99       106       113       120       127       134       141
       148       155       162       169       176       183       190       197       204       211
       218       225       232       239       246       253       260       267       274       281
       288       295       302       309       316       323       330       337       344       351
       358       365       372       379       386       393       400       407       414       421
       428       435       442       449
#---1----|----2----|----3----|----4----|----5----|----6----|----7----|----8----|----9----|---10----|
/BCS/3
nodes_bcs
#   trarot   Skew_id   Gnod_id
   111 111         0        33
/GRNOD/NODE/33
BCS_group_33_of_NODE
         1         2         3         4         5         6         7       456       457       458
       459       460       461       462       463
#---1----|----2----|----3----|----4----|----5----|----6----|----7----|----8----|----9----|---10----|
/BCS/4
impactor_bcs
#   trarot   Skew_id   Gnod_id
   110 111         0         7
/GRNOD/NODE/7
impactor_master
       986
#---1----|----2----|----3----|----4----|----5----|----6----|----7----|----8----|----9----|---10----|
#-  5. PARTS:
#---1----|----2----|----3----|----4----|----5----|----6----|----7----|----8----|----9----|---10----|
/PART/1
SHELL1
         2         2        10
#---1----|----2----|----3----|----4----|----5----|----6----|----7----|----8----|----9----|---10----|
# SHELL elements of /PART/1/SHELL1:
#---1----|----2----|----3----|----4----|----5----|----6----|----7----|----8----|----9----|---10----|
/SHELL/1
         1         1         2         9         8                                                 0
         2         2         3        10         9                                                 0
         3         3         4        11        10                                                 0
         4         4         5        12        11                                                 0
         5         5         6        13        12                                                 0
         6         6         7        14        13                                                 0
         7         8         9        16        15                                                 0
         8         9        10        17        16                                                 0
         9        10        11        18        17                                                 0
        10        11        12        19        18                                                 0
        11        12        13        20        19                                                 0
        12        13        14        21        20                                                 0
        13        15        16        23        22                                                 0
        14        16        17        24        23                                                 0
        15        17        18        25        24                                                 0
        16        18        19        26        25                                                 0
        17        19        20        27        26                                                 0
        18        20        21        28        27                                                 0
        19        22        23        30        29                                                 0
        20        23        24        31        30                                                 0
# ... 719 like lines cut
#---1----|----2----|----3----|----4----|----5----|----6----|----7----|----8----|----9----|---10----|
/PART/5
New Part
         2         2         6
#---1----|----2----|----3----|----4----|----5----|----6----|----7----|----8----|----9----|---10----|
# SHELL elements of /PART/5/New Part:
#---1----|----2----|----3----|----4----|----5----|----6----|----7----|----8----|----9----|---10----|
/SHELL/5
        40        46        47        54        53                                                 0
        41        47        48        55        54                                                 0
        42        48        49        56        55                                                 0
        44        51        52        59        58                                                 0
        45        52        53        60        59                                                 0
        46        53        54        61        60                                                 0
        47        54        55        62        61                                                 0
        48        55        56        63        62                                                 0
        50        58        59        66        65                                                 0
        51        59        60        67        66                                                 0
        52        60        61        68        67                                                 0
        53        61        62        69        68                                                 0
        54        62        63        70        69                                                 0
        56        65        66        73        72                                                 0
        57        66        67        74        73                                                 0
        58        67        68        75        74                                                 0
        59        68        69        76        75                                                 0
        60        69        70        77        76                                                 0
        62        72        73        80        79                                                 0
        63        73        74        81        80                                                 0
# ... 27 like lines cut
#---1----|----2----|----3----|----4----|----5----|----6----|----7----|----8----|----9----|---10----|
/PART/7
New Part2
         2         2         6
#---1----|----2----|----3----|----4----|----5----|----6----|----7----|----8----|----9----|---10----|
# SHELL elements of /PART/7/New Part2:
#---1----|----2----|----3----|----4----|----5----|----6----|----7----|----8----|----9----|---10----|
/SHELL/7
       167       194       195       202       201                                                 0
       168       195       196       203       202                                                 0
       170       198       199       206       205                                                 0
       171       199       200       207       206                                                 0
       172       200       201       208       207                                                 0
       173       201       202       209       208                                                 0
       174       202       203       210       209                                                 0
       177       206       207       214       213                                                 0
       178       207       208       215       214                                                 0
       179       208       209       216       215                                                 0
       180       209       210       217       216                                                 0
       184       214       215       222       221                                                 0
       185       215       216       223       222                                                 0
       186       216       217       224       223                                                 0
       190       221       222       229       228                                                 0
       191       222       223       230       229                                                 0
       192       223       224       231       230                                                 0
       196       228       229       236       235                                                 0
       197       229       230       237       236                                                 0
       593       189       664       672       196                                                 0
# ... 21 like lines cut
#---1----|----2----|----3----|----4----|----5----|----6----|----7----|----8----|----9----|---10----|
/PART/8
New Part3
         2         2         6
#---1----|----2----|----3----|----4----|----5----|----6----|----7----|----8----|----9----|---10----|
# SHELL elements of /PART/8/New Part3:
#---1----|----2----|----3----|----4----|----5----|----6----|----7----|----8----|----9----|---10----|
/SHELL/8
       275       320       321       328       327                                                 0
       276       321       322       329       328                                                 0
       280       326       327       334       333                                                 0
       281       327       328       335       334                                                 0
       282       328       329       336       335                                                 0
       287       334       335       342       341                                                 0
       288       335       336       343       342                                                 0
       293       341       342       349       348                                                 0
       294       342       343       350       349                                                 0
       300       349       350       357       356                                                 0
       306       356       357       364       363                                                 0
       739       809       810       818       817                                                 0
       745       322       816       824       329                                                 0
       746       816       817       825       824                                                 0
       747       817       818       826       825                                                 0
       753       329       824       832       336                                                 0
       754       824       825       833       832                                                 0
       755       825       826       834       833                                                 0
       756       826       827       835       834                                                 0
       761       336       832       840       343                                                 0
# ... 13 like lines cut
#---1----|----2----|----3----|----4----|----5----|----6----|----7----|----8----|----9----|---10----|
/PART/9
PARTPRESS
         2         2        10
#---1----|----2----|----3----|----4----|----5----|----6----|----7----|----8----|----9----|---10----|
# SHELL elements of /PART/9/PARTPRESS:
#---1----|----2----|----3----|----4----|----5----|----6----|----7----|----8----|----9----|---10----|
/SHELL/9
       817       385       888       896       392                                                 0
       818       888       889       897       896                                                 0
       819       889       890       898       897                                                 0
       820       890       891       899       898                                                 0
       821       891       892       900       899                                                 0
       822       892       893       901       900                                                 0
       825       392       896       904       399                                                 0
       826       896       897       905       904                                                 0
       827       897       898       906       905                                                 0
       828       898       899       907       906                                                 0
       829       899       900       908       907                                                 0
       830       900       901       909       908                                                 0
       833       399       904       912       406                                                 0
       834       904       905       913       912                                                 0
       835       905       906       914       913                                                 0
       836       906       907       915       914                                                 0
       837       907       908       916       915                                                 0
       838       908       909       917       916                                                 0
       841       406       912       920       413                                                 0
       842       912       913       921       920                                                 0
# ... 16 like lines cut
#---1----|----2----|----3----|----4----|----5----|----6----|----7----|----8----|----9----|---10----|
#-  6. SUBSETS:
#---1----|----2----|----3----|----4----|----5----|----6----|----7----|----8----|----9----|---10----|
/SUBSET/1
GLOBAL MODEL
         6
#---1----|----2----|----3----|----4----|----5----|----6----|----7----|----8----|----9----|---10----|
/SUBSET/6
New_physical_part
        10
#---1----|----2----|----3----|----4----|----5----|----6----|----7----|----8----|----9----|---10----|
/SUBSET/10
New_physical_part
#---1----|----2----|----3----|----4----|----5----|----6----|----7----|----8----|----9----|---10----|
#-  7. GEOMETRICAL SETS:
#---1----|----2----|----3----|----4----|----5----|----6----|----7----|----8----|----9----|---10----|
/PROP/SHELL/2
SHELL2
#   Ishell    Ismstr     Ish3n
         0         0         0
#                 hm                  hf                  hr                  dm                  dn
                   0                   0                   0                   0                   0
#        N   Istrain               Thick              Ashear              Ithick     Iplas
         5         0                .914                   0                   0         0
#---1----|----2----|----3----|----4----|----5----|----6----|----7----|----8----|----9----|---10----|
#-  8. FUNCTIONS:
#---1----|----2----|----3----|----4----|----5----|----6----|----7----|----8----|----9----|---10----|
/FUNCT/1
cst
#                  X                   Y
              -10000                   1                                                            
                   0                   1                                                            
               10000                   1                                                            
#---1----|----2----|----3----|----4----|----5----|----6----|----7----|----8----|----9----|---10----|
#-  9. INTERFACES:
#---1----|----2----|----3----|----4----|----5----|----6----|----7----|----8----|----9----|---10----|
/INTER/TYPE11/1
edge to edge
#  Slav_id   Mast_id     I_stf               I_gap   Multimp                Idel
         1         1         0                   0         0                   0
#              STFAC                FRIC                 GAP              Tstart               Tstop
                   1                   0                   0                   0                   0
#     I_BC                        INACTI               VIS_S               VIS_F              BUMULT
       000                             0                   0                   0                   0
/LINE/EDGE/1
edges of boxbeam
         1
/SURF/PART/1
master surface
         1         5         7         8         9
#---1----|----2----|----3----|----4----|----5----|----6----|----7----|----8----|----9----|---10----|
/INTER/TYPE7/2
auto
#  Slav_id   Mast_id      Istf                Igap     Multi      Ibag      Idel
         9         1         0                   0         0         0         0
#          GAP_SCALE             GAP_MAX
                   0                   0
#              STMIN               STMAX
                   0                   0
#              STFAC                FRIC             GAP_MIN              Tstart               Tstop
                   1                   0                   0                   0                   0
#     I_BC                        INACTI               VIS_S               VIS_F              BUMULT
       000                             0                   0                   0                   0
#    Ifric    Ifiltr               Xfreq     Iform
         0         0                   0         0
/GRNOD/SURF/9
slave surface
         1
#---1----|----2----|----3----|----4----|----5----|----6----|----7----|----8----|----9----|---10----|
#- 10. RIGID WALLS:
#---1----|----2----|----3----|----4----|----5----|----6----|----7----|----8----|----9----|---10----|
/RWALL/PLANE/1
impactor
#        N     SLIDE   gr_nod1   gr_nod2
       986         0         0         0
#           Distance            Friction            Diameter                Ffac       Ifq
                  30                   0                   0                   0         0
#               Mass                Vx_0                Vy_0                Vz_0
                 100                   0                   0                   0
#                Xm1                 Ym1                 Zm1
                   0                   0                 200
#---1----|----2----|----3----|----4----|----5----|----6----|----7----|----8----|----9----|---10----|
/PLOAD/1
PRESSION
       999       999
/SURF/PART/999
PRESSION
         9
/FUNCT/999
PRESS
#                  X                   Y                               
                   0                   0                                                            
               10000             1000000                                                           
#---1----|----2----|----3----|----4----|----5----|----6----|----7----|----8----|----9----|---10----|
#- 11. RIGID BODIES:
#---1----|----2----|----3----|----4----|----5----|----6----|----7----|----8----|----9----|---10----|
/RBODY/1
fixed
#     RBID     ISENS     NSKEW    ISPHER                MASS   Gnod_id     IKREM      ICOG   Surf_id
       985         0         0         0                   0        44         0         0         0
#                Jxx                 Jyy                 Jzz
                   0                   0                   0
#                Jxy                 Jyz                 Jxz
                   0                   0                   0
/GRNOD/GRNOD/44
RBODY_group_42_of_GRNOD
        43       -42
/GRNOD/PART/43
RBODY_group_43_of_PART
         5
/GRNOD/NODE/42
RBODY_group_44_of_NODE
         1         2         3         4         5         6         7         8         9        10
        11        12        13        14        15        16        17        18        19        20
        21        22        23        24        25        26        27        28        29        30
        31        32        33        34        35        36        37        38        39        40
        41        42        43        44        45        50        57        64        71        78
        83        84        85        86        87        88        89        90        91        92
        93        94        95        96        97        98        99       100       101       102
       103       104       105       106       107       108       109       110       111       112
       113       114       115       116       117       118       119       120       121       122
       123       124       125       126       127       128       129       130       131       132
       133       134       135       136       137       138       139       140       141       142
       143       144       145       146       147       148       149       150       151       152
       153       154       155       156       157       158       159       160       161       162
       163       164       165       166       167       168       169       170       171       172
       173       174       175       176       177       178       179       180       181       182
       183       184       185       186       187       188       189       190       191       192
       193       194       195       196       197       198       199       200       201       204
       205       206       211       212       213       214       218       219       220       221
       225       226       227       228       230       231       232       233       234       235
       236       237       238       239       240       241       242       243       244       245
# ... 67 like lines cut
#---1----|----2----|----3----|----4----|----5----|----6----|----7----|----8----|----9----|---10----|
/RBODY/2
new_rigid_body
#     RBID     ISENS     NSKEW    ISPHER                MASS   Gnod_id     IKREM      ICOG   Surf_id
       987         0         0         0                   0        45         0         0         0
#                Jxx                 Jyy                 Jzz
                   0                   0                   0
#                Jxy                 Jyz                 Jxz
                   0                   0                   0
/GRNOD/PART/45
RBODY_group_45_of_PART
         7
#---1----|----2----|----3----|----4----|----5----|----6----|----7----|----8----|----9----|---10----|
/RBODY/3
new_rigid_body2
#     RBID     ISENS     NSKEW    ISPHER                MASS   Gnod_id     IKREM      ICOG   Surf_id
       988         0         0         0                   0        46         0         0         0
#                Jxx                 Jyy                 Jzz
                   0                   0                   0
#                Jxy                 Jyz                 Jxz
                   0                   0                   0
/GRNOD/PART/46
RBODY_group_46_of_PART
         8
#---1----|----2----|----3----|----4----|----5----|----6----|----7----|----8----|----9----|---10----|
#- 12. IMPOSED VELOCITIES:
#---1----|----2----|----3----|----4----|----5----|----6----|----7----|----8----|----9----|---10----|
/IMPVEL/1
impactor
#   Ifunct       DIR     Iskew   Isensor   Gnod_id    Iframe
         1         Z         0         0         7         0
#            Scale_x             Scale_y              Tstart               Tstop
                   0         -13.3000002                   0                   0
#---1----|----2----|----3----|----4----|----5----|----6----|----7----|----8----|----9----|---10----|
#- 13. NODE GROUPS:
#---1----|----2----|----3----|----4----|----5----|----6----|----7----|----8----|----9----|---10----|
/GRNOD/NODE/4
rby_bcs
       985
#---1----|----2----|----3----|----4----|----5----|----6----|----7----|----8----|----9----|---10----|
/GRNOD/NODE/12
fixed_slave
         1         2         3         4         5         6         7       456       457       458
       459       460       461       462       463
#---1----|----2----|----3----|----4----|----5----|----6----|----7----|----8----|----9----|---10----|
/GRNOD/NODE/13
BCS_group_13_of_NODE
       985
#---1----|----2----|----3----|----4----|----5----|----6----|----7----|----8----|----9----|---10----|
/GRNOD/NODE/14
BCS_group_16_of_NODE
       985
#---1----|----2----|----3----|----4----|----5----|----6----|----7----|----8----|----9----|---10----|
/GRNOD/NODE/15
BCS_group_15_of_NODE
       985
#---1----|----2----|----3----|----4----|----5----|----6----|----7----|----8----|----9----|---10----|
/GRNOD/GRNOD/16
BCS_group_14_of_GRNOD
        15       -14
#---1----|----2----|----3----|----4----|----5----|----6----|----7----|----8----|----9----|---10----|
/GRNOD/NODE/17
BCS_group_19_of_NODE
       985
#---1----|----2----|----3----|----4----|----5----|----6----|----7----|----8----|----9----|---10----|
/GRNOD/NODE/18
BCS_group_18_of_NODE
       985
#---1----|----2----|----3----|----4----|----5----|----6----|----7----|----8----|----9----|---10----|
/GRNOD/GRNOD/19
BCS_group_17_of_GRNOD
        18       -17
#---1----|----2----|----3----|----4----|----5----|----6----|----7----|----8----|----9----|---10----|
/GRNOD/NODE/20
BCS_group_22_of_NODE
       985
#---1----|----2----|----3----|----4----|----5----|----6----|----7----|----8----|----9----|---10----|
/GRNOD/NODE/21
BCS_group_21_of_NODE
       985
#---1----|----2----|----3----|----4----|----5----|----6----|----7----|----8----|----9----|---10----|
/GRNOD/GRNOD/22
BCS_group_20_of_GRNOD
        21       -20
#---1----|----2----|----3----|----4----|----5----|----6----|----7----|----8----|----9----|---10----|
/GRNOD/NODE/23
BCS_group_25_of_NODE
       985
#---1----|----2----|----3----|----4----|----5----|----6----|----7----|----8----|----9----|---10----|
/GRNOD/NODE/24
BCS_group_24_of_NODE
       985
#---1----|----2----|----3----|----4----|----5----|----6----|----7----|----8----|----9----|---10----|
/GRNOD/GRNOD/25
BCS_group_23_of_GRNOD
        24       -23
#---1----|----2----|----3----|----4----|----5----|----6----|----7----|----8----|----9----|---10----|
/GRNOD/NODE/28
BCS_group_26_of_GRNOD
       916
#---1----|----2----|----3----|----4----|----5----|----6----|----7----|----8----|----9----|---10----|
/GRNOD/NODE/29
BCS_group_29_of_NODE
       916
#---1----|----2----|----3----|----4----|----5----|----6----|----7----|----8----|----9----|---10----|
/GRNOD/NODE/30
RBODY_group_32_of_NODE
         1         2         3         4         5         6         7       456       457       458
       459       460       461       462       463
#---1----|----2----|----3----|----4----|----5----|----6----|----7----|----8----|----9----|---10----|
/GRNOD/NODE/31
RBODY_group_31_of_NODE
         1         2         3         4         5         6         7        46        47        48
        49        51        52        53        54        55        56        58        59        60
        61        62        63        65        66        67        68        69        70        72
        73        74        75        76        77        79       456       457       458       459
       460       461       462       463       504       505       512       513       514       515
       516       517       520       521       522       523       524       525       526       528
       529       530       531       532       533       534       536       537       538       539
       540       541       542       547       548       549       550
#---1----|----2----|----3----|----4----|----5----|----6----|----7----|----8----|----9----|---10----|
/GRNOD/GRNOD/32
RBODY_group_30_of_GRNOD
        31       -30
#---1----|----2----|----3----|----4----|----5----|----6----|----7----|----8----|----9----|---10----|
/GRNOD/NODE/34
RBODY_group_34_of_NODE
       189       194       195       196       198       199       200       201       202       203
       206       207       208       209       210       213       214       215       216       217
       221       222       223       224       228       229       230       231       235       236
       237       664       665       666       672       673       674       680       681       682
       688       689       690       691       696       697       698       699       704       705
       706       707       708       712       713       714       715       716
#---1----|----2----|----3----|----4----|----5----|----6----|----7----|----8----|----9----|---10----|
/GRNOD/NODE/35
RBODY_group_35_of_NODE
       320       321       322       326       327       328       329       333       334       335
       336       341       342       343       348       349       350       356       357       363
       364       810       816       817       818       824       825       826       827       832
       833       834       835       840       841       842       843       844       848       849
       850       851       852       856       857       858       859       860
#---1----|----2----|----3----|----4----|----5----|----6----|----7----|----8----|----9----|---10----|
/GRNOD/PART/36
RBODY_group_38_of_PART
         1         9
#---1----|----2----|----3----|----4----|----5----|----6----|----7----|----8----|----9----|---10----|
/GRNOD/PART/37
RBODY_group_37_of_PART
         5
#---1----|----2----|----3----|----4----|----5----|----6----|----7----|----8----|----9----|---10----|
/GRNOD/GRNOD/38
RBODY_group_36_of_GRNOD
        37       -36
#---1----|----2----|----3----|----4----|----5----|----6----|----7----|----8----|----9----|---10----|
/GRNOD/PART/39
RBODY_group_41_of_PART
         1         9
#---1----|----2----|----3----|----4----|----5----|----6----|----7----|----8----|----9----|---10----|
/GRNOD/PART/40
RBODY_group_40_of_PART
         5
#---1----|----2----|----3----|----4----|----5----|----6----|----7----|----8----|----9----|---10----|
/GRNOD/GRNOD/41
RBODY_group_39_of_GRNOD
        40       -39
#---1----|----2----|----3----|----4----|----5----|----6----|----7----|----8----|----9----|---10----|
#- 14. TIME HISTORIES:
#---1----|----2----|----3----|----4----|----5----|----6----|----7----|----8----|----9----|---10----|
/TH/PART/1
Part selection for time history
#     var1      var2      var3      var4      var5      var6      var7      var8      var9     var10
DEF       
#     Obj1      Obj2      Obj3      Obj4      Obj5      Obj6      Obj7      Obj8      Obj9     Obj10
         1
#---1----|----2----|----3----|----4----|----5----|----6----|----7----|----8----|----9----|---10----|
/TH/NODE/2
Impactors displacement
#     var1      var2      var3      var4      var5      var6      var7      var8      var9     var10
D         
#    NODid     Iskew                                           NODname
       986         0Impactor                                                                        
#---1----|----2----|----3----|----4----|----5----|----6----|----7----|----8----|----9----|---10----|
/TH/RWALL/4
Rigid wall
#     var1      var2      var3      var4      var5      var6      var7      var8      var9     var10
FN        
#     Obj1      Obj2      Obj3      Obj4      Obj5      Obj6      Obj7      Obj8      Obj9     Obj10
         1
#---1----|----2----|----3----|----4----|----5----|----6----|----7----|----8----|----9----|---10----|
/TH/INTER/5
type 7
#     var1      var2      var3      var4      var5      var6      var7      var8      var9     var10
DEF       
#     Obj1      Obj2      Obj3      Obj4      Obj5      Obj6      Obj7      Obj8      Obj9     Obj10
         2
#---1----|----2----|----3----|----4----|----5----|----6----|----7----|----8----|----9----|---10----|
/TH/INTER/6
type 11
#     var1      var2      var3      var4      var5      var6      var7      var8      var9     var10
DEF       
#     Obj1      Obj2      Obj3      Obj4      Obj5      Obj6      Obj7      Obj8      Obj9     Obj10
         1
#---1----|----2----|----3----|----4----|----5----|----6----|----7----|----8----|----9----|---10----|
/TH/RBODY/7
fixed
#     var1      var2      var3      var4      var5      var6      var7      var8      var9     var10
DEF       
#     Obj1      Obj2      Obj3      Obj4      Obj5      Obj6      Obj7      Obj8      Obj9     Obj10
         1
#---1----|----2----|----3----|----4----|----5----|----6----|----7----|----8----|----9----|---10----|
//ENDSUB
#---1----|----2----|----3----|----4----|----5----|----6----|----7----|----8----|----9----|---10----|
#include qadiags.inc
/END
#---1----|----2----|----3----|----4----|----5----|----6----|----7----|----8----|----9----|---10----|
