#RADIOSS STARTER
#--------------------------------------------------------------------------------------------------|
#- RADIOSS DECK WRITTEN BY HyperCrash
#HyperCrash 2022.3 
#Thu Oct 12 16:57:06 2023
#-
#-
#- DATE	Thu Oct 12 16:57:06 2023
#--------------------------------------------------------------------------------------------------|
#---1----|----2----|----3----|----4----|----5----|----6----|----7----|----8----|----9----|---10----|
/BEGIN
model_00                                                                        
      2022         0
                  kg                  mm                  ms
                  kg                  mm                  ms
#---1----|----2----|----3----|----4----|----5----|----6----|----7----|----8----|----9----|---10----|
#-  1. CONTROL CARDS:
#---1----|----2----|----3----|----4----|----5----|----6----|----7----|----8----|----9----|---10----|
/TITLE

#---1----|----2----|----3----|----4----|----5----|----6----|----7----|----8----|----9----|---10----|
#-  2. MATERIALS:
#---1----|----2----|----3----|----4----|----5----|----6----|----7----|----8----|----9----|---10----|
/MAT/PLAS_JOHNS/1
Aluminum
#              RHO_I
              2.7E-6                   0
#                  E                  Nu     Iflag
                  70                   0         0
#                  a                   b                   n           EPS_p_max            SIG_max0
                 .15                  .2                  .6                   0                   0
#                  c           EPS_DOT_0       ICC   Fsmooth               F_cut               Chard
                   0                   0         0         0                   0                   0
#                  m              T_melt              rhoC_p                 T_r
                   0                   0                   0                   0
/FAIL/JOHNSON/1
#                 D1                  D2                  D3                  D4                  D5
                  .1                  .1                 -.1                   0                   0
#              EPS_0  Ifail_sh  Ifail_so                                    Dadv               Ixfem
                   0         0         0                                       0                   0
#---1----|----2----|----3----|----4----|----5----|----6----|----7----|----8----|----9----|---10----|
/MAT/PLAS_JOHNS/4
STEEL
#              RHO_I
              7.9E-6                   0
#                  E                  Nu     Iflag
                 210                  .3         0
#                  a                   b                   n           EPS_p_max            SIG_max0
                  .2                 .45                  .5                1E30                .425
#                  c           EPS_DOT_0       ICC   Fsmooth               F_cut               Chard
                   0                   0         0         0                   0                   0
#                  m              T_melt              rhoC_p                 T_r
                   0                   0                   0                   0
#---1----|----2----|----3----|----4----|----5----|----6----|----7----|----8----|----9----|---10----|
#-  3. NODES:
#---1----|----2----|----3----|----4----|----5----|----6----|----7----|----8----|----9----|---10----|
/NODE
         5                   0                   0                   0
         6                   5                   0                   0
         7                  10                   0                   0
         8                  15                   0                   0
         9                  20                   0                   0
        10                  25                   0                   0
        11                  30                   0                   0
        12                  35                   0                   0
        13                  40                   0                   0
        14                  45                   0                   0
        15                  50                   0                   0
        16                  50                   0                   5
        17                  50                   0                  10
        18                  50                   0                  15
        19                  50                   0                  20
        20                  45                   0                  20
        21                  40                   0                  20
        22                  35                   0                  20
        23                  30                   0                  20
        24                  25                   0                  20
# ... 389 like lines cut
#---1----|----2----|----3----|----4----|----5----|----6----|----7----|----8----|----9----|---10----|
#-  4. BOUNDARY CONDITIONS:
#---1----|----2----|----3----|----4----|----5----|----6----|----7----|----8----|----9----|---10----|
/BCS/1
RBODIES
#  Tra rot   skew_ID  grnod_ID
   011 111         0         4
/GRNOD/NODE/4
RBODIES
       170
#---1----|----2----|----3----|----4----|----5----|----6----|----7----|----8----|----9----|---10----|
/BCS/2
Anchorage
#  Tra rot   skew_ID  grnod_ID
   111 111         0        19
/GRNOD/PART/19
BCS_group_19_of_PART
         5
#---1----|----2----|----3----|----4----|----5----|----6----|----7----|----8----|----9----|---10----|
#-  5. PARTS:
#---1----|----2----|----3----|----4----|----5----|----6----|----7----|----8----|----9----|---10----|
/PART/1
Solid
         1         1         0
#---1----|----2----|----3----|----4----|----5----|----6----|----7----|----8----|----9----|---10----|
# TETRA4 elements of /PART/1/Solid:
#---1----|----2----|----3----|----4----|----5----|----6----|----7----|----8----|----9----|---10----|
/TETRA4/1
       120         5       160         6        32
       121        32         6        33       157
       122       157       125        33        32
       123       157         6       160        32
       124       157       122       125        32
       125       122       160        32       157
       126         6       157         7        33
       127        33         7        34       156
       128       156       148        34        33
       129       156         7       157        33
       130       156       125       148        33
       131       125       157        33       156
       132         7       156         8        34
       133        34         8        37       166
       134       166       154        37        34
       135       166         8       156        34
       136       166       148       154        34
       137       148       156        34       166
       138         8       166         9        37
       139        37         9        40       150
# ... 220 like lines cut
#---1----|----2----|----3----|----4----|----5----|----6----|----7----|----8----|----9----|---10----|
/PART/2
Solid
         1         1         3
#---1----|----2----|----3----|----4----|----5----|----6----|----7----|----8----|----9----|---10----|
# TETRA4 elements of /PART/2/Solid:
#---1----|----2----|----3----|----4----|----5----|----6----|----7----|----8----|----9----|---10----|
/TETRA4/2
       360       160       337       157       122
       361       122       157       125       338
       362       338       365       125       122
       363       338       157       337       122
       364       338       364       365       122
       365       364       337       122       338
       366       157       338       156       125
       367       125       156       148       339
       368       339       366       148       125
       369       339       156       338       125
       370       339       365       366       125
       371       365       338       125       339
       372       156       339       166       148
       373       148       166       154       340
       374       340       369       154       148
       375       340       166       339       148
       376       340       366       369       148
       377       366       339       148       340
       378       166       340       150       154
       379       154       150       144       341
# ... 220 like lines cut
#---1----|----2----|----3----|----4----|----5----|----6----|----7----|----8----|----9----|---10----|
/PART/3
Solid
         1         1         5
#---1----|----2----|----3----|----4----|----5----|----6----|----7----|----8----|----9----|---10----|
# TETRA4 elements of /PART/3/Solid:
#---1----|----2----|----3----|----4----|----5----|----6----|----7----|----8----|----9----|---10----|
/TETRA4/3
       600       337       492       338       364
       601       364       338       365       489
       602       489       457       365       364
       603       489       338       492       364
       604       489       454       457       364
       605       454       492       364       489
       606       338       489       339       365
       607       365       339       366       488
       608       488       480       366       365
       609       488       339       489       365
       610       488       457       480       365
       611       457       489       365       488
       612       339       488       340       366
       613       366       340       369       498
       614       498       486       369       366
       615       498       340       488       366
       616       498       480       486       366
       617       480       488       366       498
       618       340       498       341       369
       619       369       341       372       482
# ... 220 like lines cut
#---1----|----2----|----3----|----4----|----5----|----6----|----7----|----8----|----9----|---10----|
/PART/5
Shell
         4         4         7
#---1----|----2----|----3----|----4----|----5----|----6----|----7----|----8----|----9----|---10----|
# SHELL elements of /PART/5/Shell:
#---1----|----2----|----3----|----4----|----5----|----6----|----7----|----8----|----9----|---10----|
/SHELL/5
         1       503       509       521       520
         2       509       510       522       521
         3       510       511       523       522
         4       511       512       524       523
         5       512       513       525       524
         6       513       514       526       525
         7       514       515       527       526
         8       515       516       528       527
         9       516       517       529       528
        10       517       518       530       529
        11       518       519       531       530
        12       519       507       532       531
        13       520       521       534       533
        14       521       522       535       534
        15       522       523       536       535
        16       523       524       537       536
        17       524       525       538       537
        18       525       526       539       538
        19       526       527       540       539
        20       527       528       541       540
# ... 160 like lines cut
#---1----|----2----|----3----|----4----|----5----|----6----|----7----|----8----|----9----|---10----|
#-  6. SUBSETS:
#---1----|----2----|----3----|----4----|----5----|----6----|----7----|----8----|----9----|---10----|
/SUBSET/3
model_00
#---1----|----2----|----3----|----4----|----5----|----6----|----7----|----8----|----9----|---10----|
/SUBSET/5
model_00
#---1----|----2----|----3----|----4----|----5----|----6----|----7----|----8----|----9----|---10----|
/SUBSET/7
shell
#---1----|----2----|----3----|----4----|----5----|----6----|----7----|----8----|----9----|---10----|
#-  7. GEOMETRICAL SETS:
#---1----|----2----|----3----|----4----|----5----|----6----|----7----|----8----|----9----|---10----|
/PROP/SOLID/1
solid
#   Isolid    Ismstr               Icpre  Itetra10     Inpts   Itetra4    Iframe                  dn
         0        -1                   0         0         0         3         0                   0
#                q_a                 q_b                   h            LAMBDA_V                MU_V
                   0                   0                   0                   0                   0
#             dt_min
                   0
#---1----|----2----|----3----|----4----|----5----|----6----|----7----|----8----|----9----|---10----|
/PROP/SHELL/4
Shell_1mm
#   Ishell    Ismstr     Ish3n    Idrill                            P_thick_fail
        24         0         0         0                                       0
#                 hm                  hf                  hr                  dm                  dn
                   0                   0                   0                   0                   0
#        N   Istrain               Thick              Ashear              Ithick     Iplas
         5         0                 1.5                   0                   1         1
#---1----|----2----|----3----|----4----|----5----|----6----|----7----|----8----|----9----|---10----|
#-  8. FUNCTIONS:
#---1----|----2----|----3----|----4----|----5----|----6----|----7----|----8----|----9----|---10----|
/FUNCT/1
Imposed rotation
#                  X                   Y
                   0                   0
                   1                   1
#---1----|----2----|----3----|----4----|----5----|----6----|----7----|----8----|----9----|---10----|
/FUNCT/2
Imposed motion
#                  X                   Y
                   0                   0
                   1                   1
#---1----|----2----|----3----|----4----|----5----|----6----|----7----|----8----|----9----|---10----|
#-  9. INTERFACES:
#---1----|----2----|----3----|----4----|----5----|----6----|----7----|----8----|----9----|---10----|
/INTER/TYPE25/1
All
# Surf_ID1  Surf_ID2      Istf      Ithe      Igap   Irem_i2                Idel     Iedge
         1         0         5         0         0         0                   1      1000  
# grnd_IDS                     Gap_scale          %mesh_size           Gap_max_s           Gap_max_m
         0                             0                   0                   0                   0
#              Stmin               Stmax     Igap0    Ishape          Edge_angle
                   0                   0         1         1                   0
#              Stfac                Fric           Tpressfit              Tstart               Tstop
                   0                  .2                   0                   0                   0
#      IBC               IVIS2    Inacti               ViscS    Ithick                          Pmax
       000                   0         5                   0         0                             0
#    Ifric    Ifiltr               Xfreq             sens_ID                                 fric_ID
         0         0                   0                   0                                       0
/SURF/PART/ALL/1
All
         1         2         3         
/SURF/PART/ALL/15
blabla
         5
/INTER/TYPE25/2
All
# Surf_ID1  Surf_ID2      Istf      Ithe      Igap   Irem_i2                Idel     Iedge
         1        15         5         0         0         0                   1      1000
# grnd_IDS                     Gap_scale          %mesh_size           Gap_max_s           Gap_max_m
         0                             0                   0                   0                   0
#              Stmin               Stmax     Igap0    Ishape          Edge_angle
                   0                   0         1         1                   0
#              Stfac                Fric           Tpressfit              Tstart               Tstop
                   0                  .2                   0                   0                   0
#      IBC               IVIS2    Inacti               ViscS    Ithick                          Pmax
       000                   0         5                   0         0                             0
#    Ifric    Ifiltr               Xfreq             sens_ID                                 fric_ID
         0         0                   0                   0                                       0

#---1----|----2----|----3----|----4----|----5----|----6----|----7----|----8----|----9----|---10----|
#- 10. RIGID BODIES:
#---1----|----2----|----3----|----4----|----5----|----6----|----7----|----8----|----9----|---10----|
/RBODY/2
End_2
#     RBID     ISENS     NSKEW    ISPHER                MASS   Gnod_id     IKREM      ICOG   Surf_id
       170         0         0         0                   0        18         0         0         0
#                Jxx                 Jyy                 Jzz
                   0                   0                   0
#                Jxy                 Jyz                 Jxz
                   0                   0                   0
#  Ioptoff               Ifail
         0         0         0
/GRNOD/NODE/18
RBODY_group_18_of_NODE
        14        15        16        17        18        19        20        54        58        59
        68        69        70        71       110       142       146       162       163       168
       346       347       348       349       350       351       352       386       390       391
       400       401       402       403       442       474       478       494       495       500
#---1----|----2----|----3----|----4----|----5----|----6----|----7----|----8----|----9----|---10----|
#- 11. IMPOSED DISPLACEMENTS:
#---1----|----2----|----3----|----4----|----5----|----6----|----7----|----8----|----9----|---10----|
/IMPDISP/2
End_2
#   Ifunct       DIR     Iskew   Isensor   Gnod_id     Frame     Icoor
         1         X         0         0         7         0         0
#            Scale_x             Scale_y              Tstart               Tstop
                  10                 -25                   0                   0
/GRNOD/NODE/7
End_2
       170
#---1----|----2----|----3----|----4----|----5----|----6----|----7----|----8----|----9----|---10----|
#- 12. TIME HISTORIES:
#---1----|----2----|----3----|----4----|----5----|----6----|----7----|----8----|----9----|---10----|
/TH/RBODY/1
TH RBODY
#     var1      var2      var3      var4      var5      var6      var7      var8      var9     var10
DEF       
#     Obj1      Obj2      Obj3      Obj4      Obj5      Obj6      Obj7      Obj8      Obj9     Obj10
         2
#---1----|----2----|----3----|----4----|----5----|----6----|----7----|----8----|----9----|---10----|
/TH/INTER/2
TH INTER
#     var1      var2      var3      var4      var5      var6      var7      var8      var9     var10
DEF       
#     Obj1      Obj2      Obj3      Obj4      Obj5      Obj6      Obj7      Obj8      Obj9     Obj10
         1
#---1----|----2----|----3----|----4----|----5----|----6----|----7----|----8----|----9----|---10----|
/END
#---1----|----2----|----3----|----4----|----5----|----6----|----7----|----8----|----9----|---10----|
