#RADIOSS STARTER
#--------------------------------------------------------------------------------------------------|
#- RADIOSS DECK WRITTEN BY HyperCrash
#HyperCrash 2019.1 (64 bits) 
#Fri Mar  6 16:27:04 2020
#-
# INPUT DECK / GENERATED BY  MODEDIT V4.1f
#
#DATE	Wed Mar  8 15:31:39 2000
#
#-------------------------------------------------------------------------------
#
#-
#- DATE	Fri Mar  6 16:27:04 2020
#--------------------------------------------------------------------------------------------------|
#---1----|----2----|----3----|----4----|----5----|----6----|----7----|----8----|----9----|---10----|
/BEGIN
PLREG41B                                                                        
      2019         0
                  kg                   m                   s
                  kg                   m                   s
#---1----|----2----|----3----|----4----|----5----|----6----|----7----|----8----|----9----|---10----|
#-  1. CONTROL CARDS:
#---1----|----2----|----3----|----4----|----5----|----6----|----7----|----8----|----9----|---10----|
/TITLE
une soudure
#---1----|----2----|----3----|----4----|----5----|----6----|----7----|----8----|----9----|---10----|
#include qadiags.inc
#---1----|----2----|----3----|----4----|----5----|----6----|----7----|----8----|----9----|---10----|
/RANDOM
#       Random-Noise                Seed
                   0                   0
#---1----|----2----|----3----|----4----|----5----|----6----|----7----|----8----|----9----|---10----|
/SPMD
#   DOMDEC     Nproc              Dkword             Nthread
         0         0                   0                   0
#---1----|----2----|----3----|----4----|----5----|----6----|----7----|----8----|----9----|---10----|
/IOFLAG
#     IPRI               IGTYP     IOUTP    IOUTYY   IROOTYY     IDROT
         5                   0         0         0         0         0
#---1----|----2----|----3----|----4----|----5----|----6----|----7----|----8----|----9----|---10----|
/ANALY
#    N2D3D             IPARITH      ISUB
         0                   0         0
#---1----|----2----|----3----|----4----|----5----|----6----|----7----|----8----|----9----|---10----|
/DEF_SOLID
#  I_SOLID    ISMSTR             ISTRAIN                                  IFRAME
         0         0                   0                                       0
#---1----|----2----|----3----|----4----|----5----|----6----|----7----|----8----|----9----|---10----|
/DEF_SHELL
#   ISHELL    ISMSTR    ITHICK     IPLAS   ISTRAIN                        I_SH3N     IDRIL
         0         0         0         0         0                             1         0
#---1----|----2----|----3----|----4----|----5----|----6----|----7----|----8----|----9----|---10----|
/SHFRA/V4
#---1----|----2----|----3----|----4----|----5----|----6----|----7----|----8----|----9----|---10----|
#-  2. MATERIALS:
#---1----|----2----|----3----|----4----|----5----|----6----|----7----|----8----|----9----|---10----|
/MAT/LAW1/1
ELASTIC SIMPLIFIED STEEL
#        Init. dens.          Ref. dens.
              7.8E-6                   0
#                  E                  nu
              210000                  .3
#---1----|----2----|----3----|----4----|----5----|----6----|----7----|----8----|----9----|---10----|
/MAT/LAW1/2
ELASTIC SIMPLIFIED STEEL
#        Init. dens.          Ref. dens.
              7.8E-6                   0
#                  E                  nu
              210000                  .3
#---1----|----2----|----3----|----4----|----5----|----6----|----7----|----8----|----9----|---10----|
#-  3. NODES:
#---1----|----2----|----3----|----4----|----5----|----6----|----7----|----8----|----9----|---10----|
/NODE
         1                   0                   0                  -5
         2                 100                   0                  -5
         3                  30                  30                  -5
         4                  70                  30                  -5
         5                  50                  50                  -5
         6                  30                  70                  -5
         7                  70                  70                  -5
         8                   0                 100                  -5
         9                 100                 100                  -5
        11                   0                   0                   0
        12                 100                   0                   0
        13                  30                  30                   0
        14                  70                  30                   0
        15                  50                  50                   0
        16                  30                  70                   0
        17                  70                  70                   0
        18                   0                 100                   0
        19                 100                 100                   0
#---1----|----2----|----3----|----4----|----5----|----6----|----7----|----8----|----9----|---10----|
#-  4. PARTS:
#---1----|----2----|----3----|----4----|----5----|----6----|----7----|----8----|----9----|---10----|
/PART/1
Part number 1
         1         1         0
#---1----|----2----|----3----|----4----|----5----|----6----|----7----|----8----|----9----|---10----|
# SHELL elements of /PART/1/Part number 1:
#---1----|----2----|----3----|----4----|----5----|----6----|----7----|----8----|----9----|---10----|
/SHELL/1
         1         1         2         4         3
         2         3         4         7         6
         3         1         3         6         8
         4         6         7         9         8
         5         2         9         7         4
#---1----|----2----|----3----|----4----|----5----|----6----|----7----|----8----|----9----|---10----|
/PART/2
Part number 2
         2         2         0
#---1----|----2----|----3----|----4----|----5----|----6----|----7----|----8----|----9----|---10----|
# SHELL elements of /PART/2/Part number 2:
#---1----|----2----|----3----|----4----|----5----|----6----|----7----|----8----|----9----|---10----|
/SHELL/2
        11        11        12        14        13
        12        13        14        17        16
        13        11        13        16        18
        14        16        17        19        18
        15        12        19        17        14
#---1----|----2----|----3----|----4----|----5----|----6----|----7----|----8----|----9----|---10----|
/PART/3
Part number 3
         3         0         0
#---1----|----2----|----3----|----4----|----5----|----6----|----7----|----8----|----9----|---10----|
# SPRING elements of /PART/3/Part number 3:
#---1----|----2----|----3----|----4----|----5----|----6----|----7----|----8----|----9----|---10----|
/SPRING/3
         1         5        15                                        
#---1----|----2----|----3----|----4----|----5----|----6----|----7----|----8----|----9----|---10----|
#-  5. GEOMETRICAL SETS:
#---1----|----2----|----3----|----4----|----5----|----6----|----7----|----8----|----9----|---10----|
/PROP/TYPE1/1
Part number 1
#   Ishell    Ismstr     Ish3n    Idrill                            P_thick_fail
         1         0         0         0                                       0
#                 hm                  hf                  hr                  dm                  dn
                   0                   0                   0                   0                   0
#        N   Istrain               Thick              Ashear              Ithick     Iplas
         0         0                   1                   0                   0         0
#---1----|----2----|----3----|----4----|----5----|----6----|----7----|----8----|----9----|---10----|
/PROP/TYPE1/2
Part number 2
#   Ishell    Ismstr     Ish3n    Idrill                            P_thick_fail
         1         0         0         0                                       0
#                 hm                  hf                  hr                  dm                  dn
                   0                   0                   0                   0                   0
#        N   Istrain               Thick              Ashear              Ithick     Iplas
         0         0                   1                   0                   0         0
#---1----|----2----|----3----|----4----|----5----|----6----|----7----|----8----|----9----|---10----|
/PROP/TYPE13/3
Part number 3
#               Mass             Inertia   skew_ID   sens_ID    Isflag     Ifail     Ileng    Ifail2
                .001                .001         0         0         0         0         0         0
#              KTens               CTens               ATens               BTens               DTens
               10000                   0                   0                   0                   0
#  fct_ID1     HTens   fct_ID2   fct_ID3   fct_ID4                 delta_minTens       delta_maxTens
         0         0         0         0         0                           -10                  10
#                  F                   E              Ascale             Hscalex
                   0                   0                   0                   0
#              KTens               CTens               ATens               BTens               DTens
               10000                   0                   0                   0                   0
#  fct_ID1     HTens   fct_ID2   fct_ID3   fct_ID4                 delta_minTens       delta_maxTens
         0         0         0         0         0                           -10                  10
#                  F                   E              Ascale             Hscalex
                   0                   0                   0                   0
#              KTens               CTens               ATens               BTens               DTens
               10000                   0                   0                   0                   0
#  fct_ID1     HTens   fct_ID2   fct_ID3   fct_ID4                 delta_minTens       delta_maxTens
         0         0         0         0         0                           -10                  10
#                  F                   E              Ascale             Hscalex
                   0                   0                   0                   0
#                  K                   C                   A                   B                   D
              100000                   0                   0                   0                   0
#       N1         H        N2        N3        N4                     theta_min           theta_max
         0         0         0         0         0                             0                   0
#                  F                   E              Ascale             Hscalex
                   0                   0                   0                   0
#                  K                   C                   A                   B                   D
              100000                   0                   0                   0                   0
#       N1         H        N2        N3        N4                     theta_min           theta_max
         0         0         0         0         0                             0                   0
#                  F                   E              Ascale             Hscalex
                   0                   0                   0                   0
#                  K                   C                   A                   B                   D
              100000                   0                   0                   0                   0
#       N1         H        N2        N3        N4                     theta_min           theta_max
         0         0         0         0         0                             0                   0
#                  F                   E              Ascale             Hscalex
                   0                   0                   0                   0
#                 V0              Omega0                Fcut   Fsmooth
                   0                   0                   0         0
#                  C                   n               alpha                beta
                   0                   0                   0                   0
                   0                   0                   0                   0
                   0                   0                   0                   0
                   0                   0                   0                   0
                   0                   0                   0                   0
                   0                   0                   0                   0
#---1----|----2----|----3----|----4----|----5----|----6----|----7----|----8----|----9----|---10----|
#-  6. FUNCTIONS:
#---1----|----2----|----3----|----4----|----5----|----6----|----7----|----8----|----9----|---10----|
/FUNCT/1
cst
#                  X                   Y
                   0                   5
               10000                   5
#---1----|----2----|----3----|----4----|----5----|----6----|----7----|----8----|----9----|---10----|
#-  7. CONCENTRATED LOADS:
#---1----|----2----|----3----|----4----|----5----|----6----|----7----|----8----|----9----|---10----|
/CLOAD/1
PLREGD00_cloads_1
#funct_IDT       Dir   skew_ID sensor_ID  grnod_ID                       Ascalex             Fscaley
         1         Z         0         0         2                             0                  -1
/GRNOD/NODE/2
PLREGD00_cloads_1
         1         2         8         9
#---1----|----2----|----3----|----4----|----5----|----6----|----7----|----8----|----9----|---10----|
/CLOAD/2
PLREGD00_cloads_5
#funct_IDT       Dir   skew_ID sensor_ID  grnod_ID                       Ascalex             Fscaley
         1         Z         0         0         3                             0                   1
/GRNOD/NODE/3
PLREGD00_cloads_5
        11        12        18        19
#---1----|----2----|----3----|----4----|----5----|----6----|----7----|----8----|----9----|---10----|
#-  8. INTERFACES:
#---1----|----2----|----3----|----4----|----5----|----6----|----7----|----8----|----9----|---10----|
/INTER/TYPE2/1
soudure
#  Slav_id   Surf_id    Ignore  Spotflag     Level   Isearch      Idel                       Dsearch
         4         5         0         1         0         0         0                             0
/GRNOD/NODE/4
soudure_surf_1
         5
/SURF/PART/5
soudure_surf_2
         1
#---1----|----2----|----3----|----4----|----5----|----6----|----7----|----8----|----9----|---10----|
/INTER/TYPE2/11
soudure_2
#  Slav_id   Surf_id    Ignore  Spotflag     Level   Isearch      Idel                       Dsearch
         6         7         0         1         0         0         0                             0
/GRNOD/NODE/6
soudure_2_surf_1
        15
/SURF/PART/7
soudure_2_surf_2
         2
#---1----|----2----|----3----|----4----|----5----|----6----|----7----|----8----|----9----|---10----|
#-  9. TIME HISTORIES:
#---1----|----2----|----3----|----4----|----5----|----6----|----7----|----8----|----9----|---10----|
/TH/PART/1
Part selection
#     var1      var2      var3      var4      var5      var6      var7      var8      var9     var10
DEF       
#     Obj1      Obj2      Obj3      Obj4      Obj5      Obj6      Obj7      Obj8      Obj9     Obj10
         1         2
#---1----|----2----|----3----|----4----|----5----|----6----|----7----|----8----|----9----|---10----|
/TH/NODE/2
PLREGD00_th_nodes
#     var1      var2      var3      var4      var5      var6      var7      var8      var9     var10
DEF       
#    NODid     Iskew                                           NODname
         1         0                                                                                
         2         0                                                                                
         3         0                                                                                
         4         0                                                                                
         5         0                                                                                
         6         0                                                                                
         7         0                                                                                
         8         0                                                                                
         9         0                                                                                
        11         0                                                                                
        12         0                                                                                
        13         0                                                                                
        14         0                                                                                
        15         0                                                                                
        16         0                                                                                
        17         0                                                                                
        18         0                                                                                
        19         0                                                                                
#---1----|----2----|----3----|----4----|----5----|----6----|----7----|----8----|----9----|---10----|
/TH/SPRING/3
PLREGD00_th_Spring
#     var1      var2      var3      var4      var5      var6      var7      var8      var9     var10
DEF       
#     Elid                                                      Elname
         1          PLREGD00_th_Spring                                                              
#---1----|----2----|----3----|----4----|----5----|----6----|----7----|----8----|----9----|---10----|
/TH/INTER/4
Interfaces
#     var1      var2      var3      var4      var5      var6      var7      var8      var9     var10
DEF       
#     Obj1      Obj2      Obj3      Obj4      Obj5      Obj6      Obj7      Obj8      Obj9     Obj10
         1        11
#---1----|----2----|----3----|----4----|----5----|----6----|----7----|----8----|----9----|---10----|
/END
#---1----|----2----|----3----|----4----|----5----|----6----|----7----|----8----|----9----|---10----|
