#RADIOSS STARTER
# Copyright (C) 2022 Altair Engineering Inc. ("Holder")
# Model is licensed by Holder under CC BY-NC 4.0
# (https://creativecommons.org/licenses/by-nc/4.0/legalcode).
#---1----|----2----|----3----|----4----|----5----|----6----|----7----|----8----|----9----|---10----|
/BEGIN
HYPE                                                                            
      2019         0
                  kg                   m                   s
                  kg                   m                   s
#---1----|----2----|----3----|----4----|----5----|----6----|----7----|----8----|----9----|---10----|
#-  1. CONTROL CARDS:
#---1----|----2----|----3----|----4----|----5----|----6----|----7----|----8----|----9----|---10----|
/TITLE
HYP2V21  SPHERE IMPACT V=2500 M/S
#---1----|----2----|----3----|----4----|----5----|----6----|----7----|----8----|----9----|---10----|
#include HYPED0B
#include qadiags.inc
#---1----|----2----|----3----|----4----|----5----|----6----|----7----|----8----|----9----|---10----|
/ANALY
#    N2D3D             IPARITH      ISUB
         1                   0         0
#---1----|----2----|----3----|----4----|----5----|----6----|----7----|----8----|----9----|---10----|
/DEF_SHELL
#   ISHELL    ISMSTR    ITHICK     IPLAS   ISTRAIN                        I_SH3N     IDRIL
         0         0         0         0         0                             1         0
#---1----|----2----|----3----|----4----|----5----|----6----|----7----|----8----|----9----|---10----|
/DEF_SOLID
#  I_SOLID    ISMSTR             ISTRAIN                                  IFRAME
         0         0                   0                                       0
#---1----|----2----|----3----|----4----|----5----|----6----|----7----|----8----|----9----|---10----|
/IOFLAG
#     IPRI               IGTYP     IOUTP    IOUTYY   IROOTYY     IDROT
         1                   0         0         0         0         0
#---1----|----2----|----3----|----4----|----5----|----6----|----7----|----8----|----9----|---10----|
/RANDOM
#       Random-Noise                Seed
                   0                   0
#---1----|----2----|----3----|----4----|----5----|----6----|----7----|----8----|----9----|---10----|
/SPMD
#   DOMDEC     Nproc              Dkword             Nthread
         0         4                   0                   1
#---1----|----2----|----3----|----4----|----5----|----6----|----7----|----8----|----9----|---10----|
/SHFRA/V4
#---1----|----2----|----3----|----4----|----5----|----6----|----7----|----8----|----9----|---10----|
#-  2. MATERIALS:
#---1----|----2----|----3----|----4----|----5----|----6----|----7----|----8----|----9----|---10----|
/MAT/HYD_JCOOK/1
ALU 2024 T1
#              RHO_I               RHO_O
                2.77                   0
#                  E                  nu
                 .74                 .34
#                  A                   B                   n              epsmax              sigmax
              .00265              .00426                 .34                   0                   0
#               Pmin
               -.005
#                  C           EPS_DOT_0                   M               Tmelt                Tmax
                .015                1E-6                   1                1075                   0
#              RHOCP                                                       Troom
             2.48E-5                                                           0
/EOS/POLYNOMIAL/1
Conversion of Mat Law 4 in RADIOSS 11.0 or greater
#                 C0                  C1                  C2                  C3
                   0                 .79                1.51                   0
#                 C4                  C5                  E0                 Psh               RHO_0
                  .3                  .3                   0                   0                   0
#---1----|----2----|----3----|----4----|----5----|----6----|----7----|----8----|----9----|---10----|
/MAT/HYD_JCOOK/2
acier 1006
#              RHO_I               RHO_O
                7.89                   0
#                  E                  nu
                 2.1                  .3
#                  A                   B                   n              epsmax              sigmax
               .0035              .00275                 .36                   0                   0
#               Pmin
               -.015
#                  C           EPS_DOT_0                   M               Tmelt                Tmax
                .022                1E-6                   1                1811                2000
#              RHOCP                                                       Troom
             3.57E-5                                                           0
/EOS/POLYNOMIAL/2
Conversion of Mat Law 4 in RADIOSS 11.0 or greater
#                 C0                  C1                  C2                  C3
                   0                1.69                 3.1                   0
#                 C4                  C5                  E0                 Psh               RHO_0
                1.83                1.83                   0                   0                   0
#---1----|----2----|----3----|----4----|----5----|----6----|----7----|----8----|----9----|---10----|
/MAT/HYD_JCOOK/3
acier 1006
#              RHO_I               RHO_O
                7.89                   0
#                  E                  nu
                 2.1                  .3
#                  A                   B                   n              epsmax              sigmax
               .0035              .00275                 .36                   0                   0
#               Pmin
               -.015
#                  C           EPS_DOT_0                   M               Tmelt                Tmax
                .022                1E-6                   1                1811                2000
#              RHOCP                                                       Troom
             3.57E-5                                                           0
/EOS/POLYNOMIAL/3
Conversion of Mat Law 4 in RADIOSS 11.0 or greater
#                 C0                  C1                  C2                  C3
                   0                1.69                 3.1                   0
#                 C4                  C5                  E0                 Psh               RHO_0
                1.83                1.83                   0                   0                   0
#---1----|----2----|----3----|----4----|----5----|----6----|----7----|----8----|----9----|---10----|
#-  3. BOUNDARY CONDITIONS:
#---1----|----2----|----3----|----4----|----5----|----6----|----7----|----8----|----9----|---10----|
/BCS/1
HYP2V21D00_bcs1_010_000
#  Tra rot   skew_ID  grnod_ID
   010 000         0         2
/GRNOD/NODE/2
HYP2V21D00_bcs1_010_000
         1         2         3         4         5         6         7       323       324       325
       326       327       328       329       330       331       332       333       334       335
       336       337       338       339       340       341       342       343       974       975
       976       977       978       979      1010      1011      1012      1013      1014      1065
      1071      1077      1083      1089      1140      1141      1142      1143      1144
#---1----|----2----|----3----|----4----|----5----|----6----|----7----|----8----|----9----|---10----|
/BCS/2
HYP2V21D00_bcs2_011_000
#  Tra rot   skew_ID  grnod_ID
   011 000         0         3
/GRNOD/NODE/3
HYP2V21D00_bcs2_011_000
       316       317       318       319       320       321       322       953       954       955
       956       957       958       959       960       961       962       963       964       965
       966       967       968       969       970       971       972       973
#---1----|----2----|----3----|----4----|----5----|----6----|----7----|----8----|----9----|---10----|
#-  4. PARTS:
#---1----|----2----|----3----|----4----|----5----|----6----|----7----|----8----|----9----|---10----|
/PART/1
ALU 2024 T1
         1         1         0
#---1----|----2----|----3----|----4----|----5----|----6----|----7----|----8----|----9----|---10----|
/PART/2
acier 1006
         2         2         0
#---1----|----2----|----3----|----4----|----5----|----6----|----7----|----8----|----9----|---10----|
/PART/3
acier 1006
         3         3         0
#---1----|----2----|----3----|----4----|----5----|----6----|----7----|----8----|----9----|---10----|
#-  5. GEOMETRICAL SETS:
#---1----|----2----|----3----|----4----|----5----|----6----|----7----|----8----|----9----|---10----|
/PROP/SOLID/1
ALU 2024 T1
#   Isolid    Ismstr               Icpre               Inpts    Itetra    Iframe                  dn
         0         0                   0                   0         0         0                   0
#                q_a                 q_b                   h            LAMBDA_V                MU_V
                   0                   0                   0                   0                   0
#             dt_min   istrain      IHKT
                   0         0         0
#---1----|----2----|----3----|----4----|----5----|----6----|----7----|----8----|----9----|---10----|
/PROP/SOLID/2
acier 1006
#   Isolid    Ismstr               Icpre               Inpts    Itetra    Iframe                  dn
         0         0                   0                   0         0         0                   0
#                q_a                 q_b                   h            LAMBDA_V                MU_V
                   0                   0                   0                   0                   0
#             dt_min   istrain      IHKT
                   0         0         0
#---1----|----2----|----3----|----4----|----5----|----6----|----7----|----8----|----9----|---10----|
/PROP/SOLID/3
acier 1006
#   Isolid    Ismstr               Icpre               Inpts    Itetra    Iframe                  dn
         0         0                   0                   0         0         0                   0
#                q_a                 q_b                   h            LAMBDA_V                MU_V
                   0                   0                   0                   0                   0
#             dt_min   istrain      IHKT
                   0         0         0
#---1----|----2----|----3----|----4----|----5----|----6----|----7----|----8----|----9----|---10----|
#-  6. INITIAL VELOCITIES:
#---1----|----2----|----3----|----4----|----5----|----6----|----7----|----8----|----9----|---10----|
/INIVEL/TRA/1
HYP2V21D00_inivel_1
#                 Vx                  Vy                  Vz   Gnod_id   Skew_id
                   0                   0                -.25         4         0
/GRNOD/NODE/4
HYP2V21D00_inivel_1
       974       975       976       977       978       979       980       981       982       983
       984       985       986       987       988       989       990       991       992       993
       994       995       996       997       998       999      1000      1001      1002      1003
      1004      1005      1006      1007      1008      1009      1010      1011      1012      1013
      1014      1015      1016      1017      1018      1019      1020      1021      1022      1023
      1024      1025      1026      1027      1028      1029      1030      1031      1032      1033
      1034      1035      1036      1037      1038      1039      1040      1041      1042      1043
      1044      1045      1046      1047      1048      1049      1050      1051      1052      1053
      1054      1055      1056      1057      1058      1059      1060      1061      1062      1063
      1064      1065      1066      1067      1068      1069      1070      1071      1072      1073
      1074      1075      1076      1077      1078      1079      1080      1081      1082      1083
      1084      1085      1086      1087      1088      1089      1090      1091      1092      1093
      1094      1095      1096      1097      1098      1099      1100      1101      1102      1103
      1104      1105      1106      1107      1108      1109      1110      1111      1112      1113
      1114      1115      1116      1117      1118      1119      1120      1121      1122      1123
      1124      1125      1126      1127      1128      1129      1130      1131      1132      1133
      1134      1135      1136      1137      1138      1139      1140      1141      1142      1143
      1144
#---1----|----2----|----3----|----4----|----5----|----6----|----7----|----8----|----9----|---10----|
#-  7. SENSORS:
#---1----|----2----|----3----|----4----|----5----|----6----|----7----|----8----|----9----|---10----|
/SENSOR/TIME/2
sens2
#             Tdelay
                  .5
#---1----|----2----|----3----|----4----|----5----|----6----|----7----|----8----|----9----|---10----|
/SENSOR/SENS/3
sens1
#             Tdelay
                  .5
#    sens1     sens2
         2         0
#---1----|----2----|----3----|----4----|----5----|----6----|----7----|----8----|----9----|---10----|
/SENSOR/TIME/5
sens1
#             Tdelay
                  .5
#---1----|----2----|----3----|----4----|----5----|----6----|----7----|----8----|----9----|---10----|
#-  8. INTERFACES:
#---1----|----2----|----3----|----4----|----5----|----6----|----7----|----8----|----9----|---10----|
/INTER/TYPE5/1
interface_1
# grnod_id   surf_id                                              Ibag      Idel
         6         7                                                 0         0
#              STFAC                FRIC                 GAP              Tstart               Tstop
                  .4                   0                   0                   0                   0
#     I_BC                I_RM    INACTI
       000                   0         0
#    Ifric    Ifiltr               Xfreq             sens_ID               Ptlim
         0         0                   0                   0                   0
/GRNOD/SURF/6
interface_1_surf_1
         5
/SURF/SEG/5
interface_1_surf_1
         1         8         1
         2         2         9
         3         3        10
         4         4        11
         5         5        12
         6         6        13
         7         7        14
         8        15         8
         9         9        16
        10        10        17
        11        11        18
        12        12        19
        13        13        20
        14        14        21
        15        22        15
        16        16        23
        17        17        24
        18        18        25
        19        19        26
        20        20        27
# ... 211 like lines cut
/SURF/SEG/7
interface_1_surf_2
       346      1019      1014
       347      1024      1019
       348      1029      1024
       349      1034      1029
       350      1039      1034
       351      1044      1039
       352      1049      1044
       353      1054      1049
       354      1059      1054
       355      1064      1059
       356      1099      1064
       357      1104      1099
       358      1109      1104
       359      1114      1109
       360      1119      1114
#---1----|----2----|----3----|----4----|----5----|----6----|----7----|----8----|----9----|---10----|
/INTER/TYPE3/2
interface_2
# surf_id1  surf_id2                                                        Idel
         8         9                                                           0
#              STFAC                FRIC                 GAP              Tstart               Tstop
                  .5                   0                   0                   0                   0
#     I_BC      I_RS      I_RM
       000         0         0
/SURF/SEG/8
interface_2_surf_1
       257       344       323
       261       365       344
       264       386       365
       267       407       386
       270       428       407
       273       449       428
       276       470       449
       279       491       470
       282       512       491
       285       533       512
       288       554       533
       291       575       554
       294       596       575
       297       617       596
       300       638       617
       303       659       638
       306       680       659
       309       701       680
       312       722       701
       315       743       722
# ... 10 like lines cut
/SURF/SEG/9
interface_2_surf_2
       346      1019      1014
       347      1024      1019
       348      1029      1024
       349      1034      1029
       350      1039      1034
       351      1044      1039
       352      1049      1044
       353      1054      1049
       354      1059      1054
       355      1064      1059
       356      1099      1064
       357      1104      1099
       358      1109      1104
       359      1114      1109
       360      1119      1114
#---1----|----2----|----3----|----4----|----5----|----6----|----7----|----8----|----9----|---10----|
/INTER/TYPE3/3
interface_3
# surf_id1  surf_id2                                                        Idel
        10        11                                                           0
#              STFAC                FRIC                 GAP              Tstart               Tstop
                  .4                   0                   0                   0                   0
#     I_BC      I_RS      I_RM
       000         0         0
/SURF/SEG/10
interface_3_surf_1
         7         7        14
        14        14        21
        21        21        28
        28        28        35
        35        35        42
        48        42        49
        61        49        56
        74        56        63
        87        63        70
       100        70        77
       113        77        84
       126        84        91
       139        91        98
       152        98       105
       165       105       112
       178       112       119
       185       119       126
       192       126       133
       199       133       140
       206       140       147
# ... 25 like lines cut
/SURF/SEG/11
interface_3_surf_2
       257       344       323
       261       365       344
       264       386       365
       267       407       386
       270       428       407
       273       449       428
       276       470       449
       279       491       470
       282       512       491
       285       533       512
       288       554       533
       291       575       554
       294       596       575
       297       617       596
       300       638       617
       303       659       638
       306       680       659
       309       701       680
       312       722       701
       315       743       722
# ... 10 like lines cut
#---1----|----2----|----3----|----4----|----5----|----6----|----7----|----8----|----9----|---10----|
/INTER/TYPE5/4
interface_4
# grnod_id   surf_id                                              Ibag      Idel
        13        14                                                 0         0
#              STFAC                FRIC                 GAP              Tstart               Tstop
                  .4                   0                   0                   0                   0
#     I_BC                I_RM    INACTI
       000                   0         0
#    Ifric    Ifiltr               Xfreq             sens_ID               Ptlim
         0         0                   0                   0                   0
/GRNOD/SURF/13
interface_4_surf_1
        12
/SURF/SEG/12
interface_4_surf_1
       257       344       323
       258       345       324
       259       351       330
       260       358       337
       261       365       344
       262       372       351
       263       379       358
       264       386       365
       265       393       372
       266       400       379
       267       407       386
       268       414       393
       269       421       400
       270       428       407
       271       435       414
       272       442       421
       273       449       428
       274       456       435
       275       463       442
       276       470       449
# ... 69 like lines cut
/SURF/SEG/14
interface_4_surf_2
       208       147       154
       210       154       161
       212       161       168
       214       168       175
       216       175       182
       218       182       189
       220       189       196
       222       196       203
       224       203       210
       226       210       217
       228       217       224
       230       224       231
       232       231       238
       234       238       245
       236       245       252
       238       252       259
       240       259       266
       242       266       273
       244       273       280
       246       280       287
# ... 5 like lines cut
#---1----|----2----|----3----|----4----|----5----|----6----|----7----|----8----|----9----|---10----|
#-  9. ACTIVATIONS:
#---1----|----2----|----3----|----4----|----5----|----6----|----7----|----8----|----9----|---10----|
/ACTIV/4
act1
#sensor_ID grbric_ID grquad_ID grshel_ID  grtrus_ID grbeam_ID grspr_ID grsh3n_ID              I_form
         3         0        18         0         0         0         0         0                   1
/GRQUAD/QUAD/18
quad
       904       909       914
#---1----|----2----|----3----|----4----|----5----|----6----|----7----|----8----|----9----|---10----|
#- 10. NODE GROUPS:
#---1----|----2----|----3----|----4----|----5----|----6----|----7----|----8----|----9----|---10----|
/GRNOD/NODE/14
NULL
      1014      1019
#---1----|----2----|----3----|----4----|----5----|----6----|----7----|----8----|----9----|---10----|
#- 11. TIME HISTORIES:
#---1----|----2----|----3----|----4----|----5----|----6----|----7----|----8----|----9----|---10----|
/TH/PART/1
Part selection
#     var1      var2      var3      var4      var5      var6      var7      var8      var9     var10
DEF       
#     Obj1      Obj2      Obj3      Obj4      Obj5      Obj6      Obj7      Obj8      Obj9     Obj10
         1         2         3
#---1----|----2----|----3----|----4----|----5----|----6----|----7----|----8----|----9----|---10----|
/TH/NODE/2
th_nodes
#     var1      var2      var3      var4      var5      var6      var7      var8      var9     var10
DEF       
#    NODid     Iskew                                           NODname
         3         0                                                                                
       330         0                                                                                
      1010         0                                                                                
#---1----|----2----|----3----|----4----|----5----|----6----|----7----|----8----|----9----|---10----|
/TH/QUAD/3
th_2Dsolid
#     var1      var2      var3      var4      var5      var6      var7      var8      var9     var10
DEF       
#     Elid                                                      Elname
         1                                                                                          
         6                                                                                          
       271                                                                                          
       290                                                                                          
       871                                                                                          
       900                                                                                          
       904                                                                                          
       909                                                                                          
       914                                                                                          
      1020                                                                                          
#---1----|----2----|----3----|----4----|----5----|----6----|----7----|----8----|----9----|---10----|
/END
#---1----|----2----|----3----|----4----|----5----|----6----|----7----|----8----|----9----|---10----|
