#RADIOSS STARTER
# Copyright (C) 2023 Altair Engineering Inc. ("Holder")
# Model is licensed by Holder under CC BY-NC 4.0
# (https://creativecommons.org/licenses/by-nc/4.0/legalcode).
# Copyright (C) 2022 Altair Engineering Inc. ("Holder")
# Model is licensed by Holder under CC BY-NC 4.0
# (https://creativecommons.org/licenses/by-nc/4.0/legalcode).
#--------------------------------------------------------------------------------------------------|
# TEST PUFF EOS
# ADIABATIC EXPANSION FROM HUGONIOT PH=5.0192 Mbar  EH=1.0867 Mbar
# COPPER
# FRANCIS ARNAUDEAU 10/05/2011
#--------------------------------------------------------------------------------------------------|
#---1----|----2----|----3----|----4----|----5----|----6----|----7----|----8----|----9----|---10----|
/BEGIN
EOSPUFFDET3DCU                                                                       
      2018         0
                   g                  cm                 mus
                   g                  cm                 mus
#---1----|----2----|----3----|----4----|----5----|----6----|----7----|----8----|----9----|---10----|
#-  1. CONTROL CARDS:
#---1----|----2----|----3----|----4----|----5----|----6----|----7----|----8----|----9----|---10----|
/TITLE
ADIABATIC EXPANSION 
/MEMORY
#   MEMORY                        REAL%%
         0                             0
/SPMD
#   DOMDEC      SPMD              DECMOT
         0         0                   0
/IOFLAG
#     IPRI     IRTYP     IGTYP     IOUTP    IOUTYY   IROOTYY                                 IRTYP_R
         5         0         0         0         0         0                                       0
/ANALY
#    N2D3D     INTEG   IPARITH      ISUB
         0         0         0         0
/DEF_SOLID
#  B_HOURG   B_SSTRN                                                      Iframe
         0         0                                                           0
/DEF_SHELL
#  S_HOURG   S_SSTRN   S_THICK   S_PLAST    S_STRN                        I_SH3N
         0         0         0         0         0                             0
/ALE/GRID/DONEA
#        DONEA-coeff       Grid-vel-fact                 CWx                 CWy                 CWz
                  .5                  1.                   0                   0                   0
#      ALE-min-volum       Upwind coef 1       Upwind coef 2
                   0                   0                   0
/RANDOM
#   Random-Noise
                   0
#---1----|----2----|----3----|----4----|----5----|----6----|----7----|----8----|----9----|---10----|
#-  2. MATERIALS:
#---1----|----2----|----3----|----4----|----5----|----6----|----7----|----8----|----9----|---10----|
/MAT/LAW4/1
CUIVRE
#        Init. dens.
               15.75
#                  E                  Nu
                1.30                0.34
#                  a                   b                   n             Eps_max           sigma_max
             0.00090             0.00292                0.31                   0                   0
#               Pmin
                   0
#                  c               Eps_0                   m              T_melt               T_max
               0.025              1.e-06                1.09               1356.               1e+30
#              rhoCp
           3.432e-05
#---1----|----2----|----3----|----4----|----5----|----6----|----7----|----8----|----9----|---10----|
/EOS/PUFF/1
CUIVRE
#                 C1                  C2                  C3                  G0
              1.4238              2.8476              2.4916                1.97
#                 T1                  T2                  ES
                   0                   0             0.12282
#                  H                  E0
                   1          1.08670253                8.93
#---1----|----2----|----3----|----4----|----5----|----6----|----7----|----8----|----9----|---10----|
#-  3. NODES:
#---1----|----2----|----3----|----4----|----5----|----6----|----7----|----8----|----9----|---10----|
/NODE
         1          0.00000000          0.00000000          0.00000000
         2          0.00000000          1.50000000          0.00000000
         3          0.00000000          1.50000000          1.50000000
         4          0.00000000          0.00000000          1.50000000
         5         -1.00000000          0.00000000          0.00000000
         6         -1.00000000          1.50000000          0.00000000
         7         -1.00000000          1.50000000          1.50000000
         8         -1.00000000          0.00000000          1.50000000
#---1----|----2----|----3----|----4----|----5----|----6----|----7----|----8----|----9----|---10----|
#-  4. BOUNDARY CONDITIONS:
#---1----|----2----|----3----|----4----|----5----|----6----|----7----|----8----|----9----|---10----|
/BCS/1
bcs1_111_000
#   trarot   Skew_id   Gnod_id
   111 000         0         2
/GRNOD/NODE/2
bcs1_111_000
         1         2         5         6
#---1----|----2----|----3----|----4----|----5----|----6----|----7----|----8----|----9----|---10----|
/BCS/2
bcs2_110_000
#   trarot   Skew_id   Gnod_id
   110 000         0         3
/GRNOD/NODE/3
bcs2_110_000
         3         4         7         8
#---1----|----2----|----3----|----4----|----5----|----6----|----7----|----8----|----9----|---10----|
#---1----|----2----|----3----|----4----|----5----|----6----|----7----|----8----|----9----|---10----|
#-  5. SKEWS & FRAMES:
#---1----|----2----|----3----|----4----|----5----|----6----|----7----|----8----|----9----|---10----|
#---1----|----2----|----3----|----4----|----5----|----6----|----7----|----8----|----9----|---10----|
#-  6. PARTS:
#---1----|----2----|----3----|----4----|----5----|----6----|----7----|----8----|----9----|---10----|
/PART/1
element
         1         1         0
#---1----|----2----|----3----|----4----|----5----|----6----|----7----|----8----|----9----|---10----|
# Elements of /PART/1:
#---1----|----2----|----3----|----4----|----5----|----6----|----7----|----8----|----9----|---10----|
/BRICK/1
         1         1         2         6         5         4         3         7         8
#---1----|----2----|----3----|----4----|----5----|----6----|----7----|----8----|----9----|---10----|
#-  7. GEOMETRICAL SETS:
#---1----|----2----|----3----|----4----|----5----|----6----|----7----|----8----|----9----|---10----|
/PROP/TYPE14/1
element 3D
#   Isolid    Ismstr               Icpre               Inpts              Iframe                  dn
         0         0                   0                   0                   0                   0
#                q_a                 q_b                   h
                   0                   0                   0
#             dt_min
                   0
#---1----|----2----|----3----|----4----|----5----|----6----|----7----|----8----|----9----|---10----|
#-  8. IMPOSED DISPLACEMENT:
#---1----|----2----|----3----|----4----|----5----|----6----|----7----|----8----|----9----|---10----|
/IMPDISP/1
deplacement
         1         Z         0         0         3
                   0               0.002                   0                   0
/FUNCT/1
deplacement
#                  X                   Y
                   0                   0                                                            
               10000               10000                                                            
#---1----|----2----|----3----|----4----|----5----|----6----|----7----|----8----|----9----|---10----|
#-  9. TIME HISTORIES:
#---1----|----2----|----3----|----4----|----5----|----6----|----7----|----8----|----9----|---10----|
/TH/PART/1
part selection
#     var1      var2      var3      var4      var5      var6      var7      var8      var9     var10
DEF       
#     Obj1      Obj2      Obj3      Obj4      Obj5      Obj6      Obj7      Obj8      Obj9     Obj10
         1
#---1----|----2----|----3----|----4----|----5----|----6----|----7----|----8----|----9----|---10----|
/TH/NODE/2
th_nodes
#     var1      var2      var3      var4      var5      var6      var7      var8      var9     var10
DEF       
#    NODid     Iskew                                           NODname
         3         0                                                                                
         4         0                                                                                
#---1----|----2----|----3----|----4----|----5----|----6----|----7----|----8----|----9----|---10----|
/TH/BRICK/3
th_3Dsolid
#     var1      var2      var3      var4      var5      var6      var7      var8      var9     var10
DEF       
#    ELTid                                                     ELTname
         1                                                                                          
#---1----|----2----|----3----|----4----|----5----|----6----|----7----|----8----|----9----|---10----|
#include qadiags.inc
/END
#---1----|----2----|----3----|----4----|----5----|----6----|----7----|----8----|----9----|---10----|
