#RADIOSS STARTER
#--------------------------------------------------------------------------------------------------|
#- RADIOSS DECK WRITTEN BY HyperCrash
#HyperCrash 2019.1 (64 bits) 
#Mon Mar  9 11:11:29 2020
#-
#------------------------------------------------------------------------------|
#- RADIOSS DECK / GENERATED BY HELIOSS 3.3.a2
#-
#- DATE	Tue Apr 25 15:22:47 2006
#------------------------------------------------------------------------------|
#
#-
#- DATE	Mon Mar  9 11:11:29 2020
#--------------------------------------------------------------------------------------------------|
#---1----|----2----|----3----|----4----|----5----|----6----|----7----|----8----|----9----|---10----|
/BEGIN
TEST_002                                                                        
      2019         0
                  kg                   m                   s
                  kg                   m                   s
#---1----|----2----|----3----|----4----|----5----|----6----|----7----|----8----|----9----|---10----|
#-  1. CONTROL CARDS:
#---1----|----2----|----3----|----4----|----5----|----6----|----7----|----8----|----9----|---10----|
/TITLE
 Schraubenmodell (grob vernetzt), orthotrop, *INITIAL_STRESS_SECTION
#---1----|----2----|----3----|----4----|----5----|----6----|----7----|----8----|----9----|---10----|
#include qadiags.inc
#---1----|----2----|----3----|----4----|----5----|----6----|----7----|----8----|----9----|---10----|
/ANALY
#    N2D3D             IPARITH      ISUB
         0                   0         0
#---1----|----2----|----3----|----4----|----5----|----6----|----7----|----8----|----9----|---10----|
/IOFLAG
#     IPRI               IGTYP     IOUTP    IOUTYY   IROOTYY     IDROT
         0                   0         0         0         0         0
#---1----|----2----|----3----|----4----|----5----|----6----|----7----|----8----|----9----|---10----|
/RANDOM
#       Random-Noise                Seed
                   0                   0
#---1----|----2----|----3----|----4----|----5----|----6----|----7----|----8----|----9----|---10----|
/SPMD
#   DOMDEC     Nproc              Dkword             Nthread
         0         4                   0                   1
#---1----|----2----|----3----|----4----|----5----|----6----|----7----|----8----|----9----|---10----|
/DEF_SHELL
#   ISHELL    ISMSTR    ITHICK     IPLAS   ISTRAIN                        I_SH3N     IDRIL
         0         0         0         0         0                             1         0
#---1----|----2----|----3----|----4----|----5----|----6----|----7----|----8----|----9----|---10----|
/SHFRA/V4
#---1----|----2----|----3----|----4----|----5----|----6----|----7----|----8----|----9----|---10----|
#-  2. INITIAL STATES:
#---1----|----2----|----3----|----4----|----5----|----6----|----7----|----8----|----9----|---10----|
/INIBRI/STRESS
     26512                           900                   0                   0
                   0                   0                   0
#---1----|----2----|----3----|----4----|----5----|----6----|----7----|----8----|----9----|---10----|
#-  3. MATERIALS:
#---1----|----2----|----3----|----4----|----5----|----6----|----7----|----8----|----9----|---10----|
/MAT/PLAS_TAB/6
MAT_PIECEWISE_LINEAR_PLASTICITY_6
#              RHO_I
             7.85E-9                   0
#                  E                  Nu           Eps_p_max               Eps_t               Eps_m
              210000                  .3                   0                   0                   0
#  N_funct  F_smooth              C_hard               F_cut               Eps_f                  VP
         1         0                   0                   0                   0                   0
#  fct_IDp              Fscale   Fct_IDE                EInf                  CE
         0                   1         0                   0                   0
# func_ID1  func_ID2  func_ID3  func_ID4  func_ID5
         2
#           Fscale_1            Fscale_2            Fscale_3            Fscale_4            Fscale_5
                   1
#          Eps_dot_1           Eps_dot_2           Eps_dot_3           Eps_dot_4           Eps_dot_5
                   0
#---1----|----2----|----3----|----4----|----5----|----6----|----7----|----8----|----9----|---10----|
#-  4. NODES:
#---1----|----2----|----3----|----4----|----5----|----6----|----7----|----8----|----9----|---10----|
/NODE
     33093                -2.5                 2.5                   0
     33094                   0                   0                   0
     33095                   0                 2.5                   0
     33098                -2.5                   0                   0
     33158                -2.5                 2.5           4.2666698
     33159                   0                   0           4.2666698
     33160                   0                 2.5           4.2666698
     33163                -2.5                   0           4.2666698
     33855                   0                   0                   0
     33856                   1                   0                   0
     33857                   0                   1                   0
     33858                   0                   0                12.8
     33859               65440                   0                12.8
     33860                   0                1144                12.8
#---1----|----2----|----3----|----4----|----5----|----6----|----7----|----8----|----9----|---10----|
#-  5. SKEWS & FRAMES:
#---1----|----2----|----3----|----4----|----5----|----6----|----7----|----8----|----9----|---10----|
/SKEW/MOV/1
DEFINE_COORDINATE_SYSTEM_1
#       N1        N2        N3        Dir
     33855     33856     33857
#---1----|----2----|----3----|----4----|----5----|----6----|----7----|----8----|----9----|---10----|
/SKEW/MOV/2
DEFINE_COORDINATE_SYSTEM_2
#       N1        N2        N3        Dir
     33858     33859     33860
#---1----|----2----|----3----|----4----|----5----|----6----|----7----|----8----|----9----|---10----|
#-  6. PARTS:
#---1----|----2----|----3----|----4----|----5----|----6----|----7----|----8----|----9----|---10----|
/PART/25
mutter
        25         6         0
#---1----|----2----|----3----|----4----|----5----|----6----|----7----|----8----|----9----|---10----|
# BRICK elements of /PART/25/mutter:
#---1----|----2----|----3----|----4----|----5----|----6----|----7----|----8----|----9----|---10----|
/BRICK/25
     26512     33093     33098     33094     33095     33158     33163     33159     33160
#---1----|----2----|----3----|----4----|----5----|----6----|----7----|----8----|----9----|---10----|
#-  7. GEOMETRICAL SETS:
#---1----|----2----|----3----|----4----|----5----|----6----|----7----|----8----|----9----|---10----|
/PROP/SOLID/25
SECTION_SOLID_25
#   Isolid    Ismstr               Icpre               Inpts    Itetra    Iframe                  dn
         0         0                   0                   0         0         0                   0
#                q_a                 q_b                   h            LAMBDA_V                MU_V
                   0                   0                   0                   0                   0
#             dt_min   istrain      IHKT
                   0         0         0
#---1----|----2----|----3----|----4----|----5----|----6----|----7----|----8----|----9----|---10----|
#-  8. FUNCTIONS:
#---1----|----2----|----3----|----4----|----5----|----6----|----7----|----8----|----9----|---10----|
/FUNCT/1
NULL
#                  X                   Y
                   0                   0
              3.3E-4              161.33
              6.6E-4              322.67
                .001                 550
#---1----|----2----|----3----|----4----|----5----|----6----|----7----|----8----|----9----|---10----|
/FUNCT/2
NULL
#                  X                   Y
                   0                 900
        .00499999989                 940
        .00999999978                 960
         .0199999996                 970
         .0299999993                 980
         .0599999987                 990
         .0900000036                1000
          .100000001                1003
          .300000012                1005
                   1                1007
#---1----|----2----|----3----|----4----|----5----|----6----|----7----|----8----|----9----|---10----|
/FUNCT/3
NULL
#                  X                   Y
                   0                 400
        .00499999989                 440
        .00999999978                 475
         .0199999996                 520
         .0299999993                 560
         .0399999991                 580
         .0500000007                 600
                   1                 610
#---1----|----2----|----3----|----4----|----5----|----6----|----7----|----8----|----9----|---10----|
/FUNCT/4
NULL
#                  X                   Y
                   0                   0
                .002                   0
                .004              100000
          .300000012              100000
#---1----|----2----|----3----|----4----|----5----|----6----|----7----|----8----|----9----|---10----|
#-  9. INTERFACES:
#---1----|----2----|----3----|----4----|----5----|----6----|----7----|----8----|----9----|---10----|
/INTER/TYPE11/1
All
# Line_IDs  Line_IDm      Istf      Ithe      Igap                          Idel
        23        23         0         0         0                             0
#              Stmin               Stmax          %mesh_size               dtmin     Iform   Sens_Id
                   0                   0                   0                   0         0         0
#              Stfac                Fric                 Gap              Tstart               Tstop
                   1                .275                   0                   0                   0
#      IBC                        Inacti                VisS                VisF              Bumult
       000                             1                 .05                   0                 .25
#                                                                                            fric_ID
                                                                                                   0
/LINE/SURF/23
All_1
        22
/SURF/SEG/22
All_1
         1     33093     33095     33094     33098
         2     33093     33095     33160     33158
         3     33093     33098     33163     33158
         4     33095     33094     33159     33160
         5     33098     33094     33159     33163
         6     33158     33163     33159     33160
#---1----|----2----|----3----|----4----|----5----|----6----|----7----|----8----|----9----|---10----|
#- 10. TIME HISTORIES:
#---1----|----2----|----3----|----4----|----5----|----6----|----7----|----8----|----9----|---10----|
/TH/PART/10
NULL
#     var1      var2      var3      var4      var5      var6      var7      var8      var9     var10
DEF       
#     Obj1      Obj2      Obj3      Obj4      Obj5      Obj6      Obj7      Obj8      Obj9     Obj10
        25
#---1----|----2----|----3----|----4----|----5----|----6----|----7----|----8----|----9----|---10----|
/TH/INTER/11
All
#     var1      var2      var3      var4      var5      var6      var7      var8      var9     var10
DEF       
#     Obj1      Obj2      Obj3      Obj4      Obj5      Obj6      Obj7      Obj8      Obj9     Obj10
         1
#---1----|----2----|----3----|----4----|----5----|----6----|----7----|----8----|----9----|---10----|
/END
#---1----|----2----|----3----|----4----|----5----|----6----|----7----|----8----|----9----|---10----|
