//
//DEFINE_CONTACT_CONTROL
//

// 
// ContactControl should mirror the structure defined in:
// '../../../../defaults/ls-dyna971/domain/tree_hierarchy_domain.cfg'
//

ATTRIBUTES(COMMON) {
    // 
    // The following generic (non type-specific) variables are not user-modifiable
    //

    discretization                          = VALUE(STRING, "Discretization");
    staticfrictioncoefficient               = VALUE(FLOAT, "FS", "Static Friction Coefficient");
    initialpenetrations                     = VALUE(INT, "IGNORE", "Allow Initial Penetrations");
    solverkword                             = VALUE(STRING, "Solver Keyword");

    //
    // The following type-specific variables are user-modifiable
    //
}

DEFAULTS(COMMON)
{
    // 
    // The following generic (non type-specific) variables are not user-modifiable
    //

    discretization                          = "Self Impact";
    staticfrictioncoefficient               = 1.0;
    initialpenetrations                     = 1;
    solverkword                             = "AUTOMATIC_SINGLE_SURFACE";

    //
    // The following type-specific variables are user-modifiable
    //
}

GUI(COMMON)
{
    // 
    // The following generic (non type-specific) variables are not user-modifiable
    //

    SEPARATOR("Generic");

    RADIO(discretization)
    {
        ADD("Self Impact", "Self Impact");
    }

    SCALAR(staticfrictioncoefficient);

    RADIO(initialpenetrations)
    {
        ADD(0, "Remove Initial Penetrations");
        ADD(1, "Allow Initial Penetrations");
    }

    SEPARATOR("");

    SEPARATOR("Solver Specific");

    //
    // The following type-specific variables are user-modifiable
    //

    RADIO(solverkword)
    {
        ADD("AIRBAG_SINGLE_SURFACE", "AIRBAG_SINGLE_SURFACE");
        ADD("AUTOMATIC_GENERAL", "AUTOMATIC_GENERAL");
        ADD("AUTOMATIC_SINGLE_SURFACE", "AUTOMATIC_SINGLE_SURFACE");
        ADD("ERODING_SINGLE_SURFACE", "ERODING_SINGLE_SURFACE");
        ADD("INTERIOR", "INTERIOR");
        ADD("SINGLE_SURFACE", "SINGLE_SURFACE");
    }

    SEPARATOR("");
}
