#RADIOSS STARTER
#--------------------------------------------------------------------------------------------------|
#- RADIOSS DECK WRITTEN BY HyperCrash
#HyperCrash 2022 (64 bits) 
#Fri May 20 15:03:46 2022
#-
#-
#- DATE	Fri May 20 15:03:46 2022
#--------------------------------------------------------------------------------------------------|
#---1----|----2----|----3----|----4----|----5----|----6----|----7----|----8----|----9----|---10----|
/BEGIN
CISA12                                                                          
      2022         0
                   1                   1                   1
                   1                   1                   1
#---1----|----2----|----3----|----4----|----5----|----6----|----7----|----8----|----9----|---10----|
#-  1. CONTROL CARDS:
#---1----|----2----|----3----|----4----|----5----|----6----|----7----|----8----|----9----|---10----|
/TITLE
cisaillement 12
#---1----|----2----|----3----|----4----|----5----|----6----|----7----|----8----|----9----|---10----|
/ANALY
#    N2D3D             IPARITH      ISUB
         0                   0         0
#---1----|----2----|----3----|----4----|----5----|----6----|----7----|----8----|----9----|---10----|
/DEF_SHELL
#   ISHELL    ISMSTR    ITHICK     IPLAS   ISTRAIN                        I_SH3N     IDRIL
         0         0         0         0         0                             0         0
#---1----|----2----|----3----|----4----|----5----|----6----|----7----|----8----|----9----|---10----|
/DEF_SOLID
#  I_SOLID    ISMSTR     ICPRE             ITETRA4  ITETRA10      IMAS    IFRAME
         0         0         0                   0         0         0         0
#---1----|----2----|----3----|----4----|----5----|----6----|----7----|----8----|----9----|---10----|
/IOFLAG
#     IPRI                         IOUTP    IOUTYY   IROOTYY     IDROT
         0                             0         0         0         0
#---1----|----2----|----3----|----4----|----5----|----6----|----7----|----8----|----9----|---10----|
/RANDOM
#       Random-Noise                Seed
                   0                   0
#---1----|----2----|----3----|----4----|----5----|----6----|----7----|----8----|----9----|---10----|
#-  2. MATERIALS:
#---1----|----2----|----3----|----4----|----5----|----6----|----7----|----8----|----9----|---10----|
/MAT/LAW68/1
MAIN_HONEYCOMB_MIDDLE
#              RHO_I
             2.86E-8                   0
#               E_11                E_22                E_33
                  .2                 .02                 .02
#               G_12                G_23                G_31
                  .1                 .01                  .1
# Initial tension/compression
#fun_ID11i fun_ID22i fun_ID33i    Iflag1           Fscale11i           Fscale22i           Fscale33i
       111        22        33        -1                   1                   1                   1
# Tension/compression
#         Eps_max11i          Eps_max22i          Eps_max33i
                   0                   0                   0
# Initial shear
#fun_ID12i fun_ID23i fun_ID31i    Iflag2           Fscale12i           Fscale23i           Fscale31i
        12        23        31        -1                   1                   1                   1
# Shear
#         Eps_max12i          Eps_max23i          Eps_max31i
                   0                   0                   0
# Initial shear
#fun_ID21i fun_ID32i fun_ID13i                     Fscale21i           Fscale32i           Fscale13i
        21        32        13                             1                   1                   1
# Residual tension/compression
#fun_ID11r fun_ID22i fun_ID33i                     Fscale11r           Fscale22r           Fscale33r
        11        22        33                             1                   1                   1
# Transition tension/compression
#       Eps_trans11r        Eps_trans22r        Eps_trans33r
                  .8                   0                   0
# Residual shear
#fun_ID12r fun_ID23r fun_ID31r                     Fscale12r           Fscale23r           Fscale31r
        12        23        31                             1                   1                   1
# Transition shear
#       Eps_trans12r        Eps_trans23r        Eps_trans31r
                   0                   0                   0
# Residual shear
#fun_ID21r fun_ID32r fun_ID13r                     Fscale21r           Fscale32r           Fscale13r
        21        32        13                             1                   1                   1
#---1----|----2----|----3----|----4----|----5----|----6----|----7----|----8----|----9----|---10----|
#-  3. NODES:
#---1----|----2----|----3----|----4----|----5----|----6----|----7----|----8----|----9----|---10----|
/NODE
      1186            185.7701             1.71065               4.584
      1187            185.7701          -18.199309               4.584
      1188            185.7701             1.71065                24.5
      1189            185.7701          -18.199309                24.5
      1204            185.7701            22.62065               4.584
      1206            185.7701            22.62065                24.5
      1230            185.7701             1.71065           -16.33266
      1231            185.7701          -18.199309           -16.33266
      1242            185.7701            22.62065           -16.33266
      1266            185.7701           43.530652               4.584
      1268            185.7701           43.530652                24.5
      1284            185.7701           64.499992               4.584
      1286            185.7701           64.499992                24.5
      1310            185.7701           43.530649           -16.33266
      1322            185.7701           64.499992           -16.33266
      1342            185.7701             1.71065           -37.24932
      1343            185.7701          -18.199309           -37.24932
      1354            185.7701            22.62065           -37.24932
      1370            185.7701             1.71065           -58.16598
      1371            185.7701          -18.199309           -58.16598
# ... 3732 like lines cut
#---1----|----2----|----3----|----4----|----5----|----6----|----7----|----8----|----9----|---10----|
#-  4. BOUNDARY CONDITIONS:
#---1----|----2----|----3----|----4----|----5----|----6----|----7----|----8----|----9----|---10----|
/BCS/3
left
#  Tra rot   skew_ID  grnod_ID
   011 111         0       153
/GRNOD/NODE/153
left_3
     15318
#---1----|----2----|----3----|----4----|----5----|----6----|----7----|----8----|----9----|---10----|
/BCS/4
right
#  Tra rot   skew_ID  grnod_ID
   110 111         0       154
/GRNOD/NODE/154
right_4
     15319
#---1----|----2----|----3----|----4----|----5----|----6----|----7----|----8----|----9----|---10----|
#-  5. SKEWS & FRAMES:
#---1----|----2----|----3----|----4----|----5----|----6----|----7----|----8----|----9----|---10----|
/SKEW/MOV/1
11
#       N1        N2        N3        Dir
      3643      3637      3555
#---1----|----2----|----3----|----4----|----5----|----6----|----7----|----8----|----9----|---10----|
#-  6. PARTS:
#---1----|----2----|----3----|----4----|----5----|----6----|----7----|----8----|----9----|---10----|
/PART/1
main
         1         1         0
#---1----|----2----|----3----|----4----|----5----|----6----|----7----|----8----|----9----|---10----|
# BRICK elements of /PART/1/main:
#---1----|----2----|----3----|----4----|----5----|----6----|----7----|----8----|----9----|---10----|
/BRICK/1
      2185      1188     10806     11753     10798     10808     11766     12190     11757
      2186     10806      1189     10802     11753     11766     10809     11761     12190
      2187     10798     11753     10797      1186     11757     12190     11755     10801
      2188     11753     10802      1187     10797     12190     11761     10804     11755
      2189     10808     11766     12190     11757      1705     10879     11828     10873
      2190     11766     10809     11761     12190     10879      1706     10876     11828
      2191     11757     12190     11755     10801     10873     11828     10872      1703
      2192     12190     11761     10804     11755     11828     10876      1704     10872
      2193      1206     10807     11756     10811     10816     11767     12191     11770
      2194     10807      1188     10798     11756     11767     10808     11757     12191
      2195     10811     11756     10799      1204     11770     12191     11759     10814
      2196     11756     10798      1186     10799     12191     11757     10801     11759
      2197     10816     11767     12191     11770      1717     10880     11830     10882
      2198     11767     10808     11757     12191     10880      1705     10873     11830
      2199     11770     12191     11759     10814     10882     11830     10874      1715
      2200     12191     11757     10801     11759     11830     10873      1703     10874
      2201      1186     10797     11754     10800     10801     11755     12192     11760
      2202     10797      1187     10803     11754     11755     10804     11763     12192
      2203     10800     11754     10817      1230     11760     12192     11776     10820
      2204     11754     10803      1231     10817     12192     11763     10822     11776
# ... 2860 like lines cut
#---1----|----2----|----3----|----4----|----5----|----6----|----7----|----8----|----9----|---10----|
#-  7. GEOMETRICAL SETS:
#---1----|----2----|----3----|----4----|----5----|----6----|----7----|----8----|----9----|---10----|
/PROP/SOL_ORTH/1
main
#   Isolid    Ismstr               Icpre  Itetra10     Inpts   Itetra4    Iframe                  dn
         2         1                   0         0         0         0         0                   0
#                q_a                 q_b                   h
               1E-20               1E-20                  .1
#                 Vx                  Vy                  Vz   skew_ID        Ip     Iorth
                   0                   0                   0         1         0         0
#                phi
                   0
#             dt_min
                   0
#---1----|----2----|----3----|----4----|----5----|----6----|----7----|----8----|----9----|---10----|
#-  8. FUNCTIONS:
#---1----|----2----|----3----|----4----|----5----|----6----|----7----|----8----|----9----|---10----|
/FUNCT/1
FUNCTION: 50
#                  X                   Y
                   0                .214
                .001                .233
                .002               .2349
                .005               .2378
                 .01               .2402
                 .02               .2429
                 .05               .2446
                .051               .2446
                  .1               .2446
               10000               .2446
#---1----|----2----|----3----|----4----|----5----|----6----|----7----|----8----|----9----|---10----|
/FUNCT/11
Yield_11_residuelle
#                  X                   Y
            -1.00001          1.35678E-9
             -.16435             2.32E-5
              -.1597              .00119
             -.15027              .00117
             -.11405               .0011
             -.07483                .001
             -.06201              9.6E-4
                -.06          9.49268E-4
               -.058          9.50486E-4
               -.056          9.44564E-4
             -.04801          9.10183E-4
               -.036          8.49641E-4
               -.028          8.01017E-4
             -.02001          7.42306E-4
               -.012           6.6686E-4
                -.01          6.43649E-4
               -.008          6.17763E-4
             -.00601          5.88182E-4
               -.004          5.52587E-4
               -.002          5.06782E-4
# ... 10 like lines cut
#---1----|----2----|----3----|----4----|----5----|----6----|----7----|----8----|----9----|---10----|
/FUNCT/12
Yield_12
#                  X                   Y
                 -10                7E-6
             -.95021             1.39E-5
             -.86466             3.39E-5
               -.703              8.8E-5
               -.165              1.6E-4
              -.0906             1.37E-4
               -.038             1.19E-4
                   0                1E-4
                .038             1.19E-4
               .0906             1.37E-4
                .165              1.6E-4
                .703              8.8E-5
              .86466             3.39E-5
              .95021             1.39E-5
                  10                7E-6
#---1----|----2----|----3----|----4----|----5----|----6----|----7----|----8----|----9----|---10----|
/FUNCT/13
Yield_13
#                  X                   Y
                 -10                7E-6
             -.95021             1.39E-5
             -.86466             3.39E-5
               -.393              8.8E-5
               -.165              1.6E-4
              -.0906             1.37E-4
               -.038             1.19E-4
                   0                1E-4
                .038             1.19E-4
               .0906             1.37E-4
                .165              1.6E-4
                .393              8.8E-5
              .86466             3.39E-5
              .95021             1.39E-5
                  10                7E-6
#---1----|----2----|----3----|----4----|----5----|----6----|----7----|----8----|----9----|---10----|
/FUNCT/21
Yield_21
#                  X                   Y
                 -10              7.6E-5
             -.80343              7.6E-5
             -.79076              7.6E-5
             -.14786              2.2E-4
             -.08675            1.787E-4
             -.07781            1.779E-4
              -.0319             1.49E-4
              -.0049              1.3E-4
                   0             1.27E-4
              .00499              1.3E-4
               .0314             1.49E-4
              .07781            1.779E-4
              .08675            1.787E-4
              .14786              2.2E-4
              .79076              7.6E-5
              .80343              7.6E-5
                  10              7.6E-5
#---1----|----2----|----3----|----4----|----5----|----6----|----7----|----8----|----9----|---10----|
/FUNCT/22
Yield_22
#                  X                   Y
            -1.00001          1.07498E-7
             -.42962          1.07498E-7
             -.40259          1.09213E-5
              -.3229          3.31857E-4
             -.23347          5.30001E-5
                   0          2.00001E-5
              .00995          5.30001E-5
              .09437          5.30001E-5
              .32254          5.30001E-5
              .84507          5.30001E-5
              .99995                1E-4
#---1----|----2----|----3----|----4----|----5----|----6----|----7----|----8----|----9----|---10----|
/FUNCT/23
Yield_23
#                  X                   Y
                 -10          1.00007E-5
                -.31          1.00007E-5
                -.28                1E-4
                -.27                2E-4
                -.25          4.00007E-4
                 -.2                1E-4
                   0          2.00001E-5
                  .2                1E-4
                 .25          4.00007E-4
                 .27                2E-4
                 .28                1E-4
                 .31          1.00007E-5
                  10          1.00007E-5
#---1----|----2----|----3----|----4----|----5----|----6----|----7----|----8----|----9----|---10----|
/FUNCT/31
Yield_31
#                  X                   Y
                 -10              7.6E-5
             -.79343              7.6E-5
             -.75076              7.6E-5
             -.14786              2.2E-4
             -.08675            1.787E-4
             -.07781            1.779E-4
              -.0319             1.49E-4
              -.0049              1.3E-4
                   0             1.27E-4
              .00499              1.3E-4
               .0314             1.49E-4
              .07781            1.779E-4
              .08675            1.787E-4
              .14786              2.2E-4
              .75076              7.6E-5
              .79343              7.6E-5
                  10              7.6E-5
#---1----|----2----|----3----|----4----|----5----|----6----|----7----|----8----|----9----|---10----|
/FUNCT/32
Yield_32
#                  X                   Y
                 -10          1.22006E-5
                -.52          1.22006E-5
                -.48                4E-4
                 -.4                2E-4
             -.37756          1.39007E-4
                -.35          5.00001E-5
                   0          2.00001E-5
                 .35          5.00001E-5
              .37756          1.39007E-4
                  .4                2E-4
                 .48                4E-4
                 .52          1.22006E-5
                  10          1.22006E-5
#---1----|----2----|----3----|----4----|----5----|----6----|----7----|----8----|----9----|---10----|
/FUNCT/33
Yield_33
#                  X                   Y
            -1.00001          1.07498E-7
             -.42962          1.07498E-7
             -.40259          1.09213E-5
              -.3229          3.31857E-4
             -.23347          5.30001E-5
                   0          2.00001E-5
              .00995          5.30001E-5
              .32254          5.30001E-5
              .84507          5.30001E-5
              .99995                1E-4
#---1----|----2----|----3----|----4----|----5----|----6----|----7----|----8----|----9----|---10----|
/FUNCT/100
Yield_glue_bumper_compression_tension
#                  X                   Y
               -1000                9E-4
                  -1                9E-4
                -.25                9E-4
                   0                2E-5
                 .01                 .01
                   1                 .01
                1000                 .01
#---1----|----2----|----3----|----4----|----5----|----6----|----7----|----8----|----9----|---10----|
/FUNCT/101
Yield_glue_main_compression_tension
#                  X                   Y
               -1000              4.5E-4
                  -1              4.5E-4
                -.25              4.5E-4
                   0                2E-5
                 .01                 .01
                   1                 .01
                1000                 .01
#---1----|----2----|----3----|----4----|----5----|----6----|----7----|----8----|----9----|---10----|
/FUNCT/111
Yield_11_initial_pic
#                  X                   Y
            -1.00001          1.35678E-9
             -.16435             2.32E-5
              -.1597              .00119
             -.15027              .00117
             -.11405               .0011
             -.07483                .001
             -.06201              9.6E-4
                -.06          9.49268E-4
               -.058          9.50486E-4
               -.056          9.44564E-4
             -.04801          9.10183E-4
               -.036          8.49641E-4
               -.028          8.01017E-4
             -.02001          7.42306E-4
               -.012           6.6686E-4
                -.01          6.43649E-4
               -.008          6.17763E-4
             -.00601          5.88182E-4
               -.004          5.52587E-4
               -.002          5.06782E-4
# ... 10 like lines cut
#---1----|----2----|----3----|----4----|----5----|----6----|----7----|----8----|----9----|---10----|
/FUNCT/112
Yield_12_bumper
#                  X                   Y
                 -10              3.5E-5
             -.95021             6.95E-5
             -.86466            1.695E-4
               -.703              4.4E-4
               -.165                8E-4
              -.0906             6.85E-4
               -.038             5.95E-4
                   0                5E-4
                .038             5.95E-4
               .0906             6.85E-4
                .165                8E-4
                .703              4.4E-4
              .86466            1.695E-4
              .95021             6.95E-5
                  10              3.5E-5
#---1----|----2----|----3----|----4----|----5----|----6----|----7----|----8----|----9----|---10----|
/FUNCT/113
Yield_13_bumper
#                  X                   Y
                 -10              3.5E-5
             -.95021             6.95E-5
             -.86466            1.695E-4
               -.393              4.4E-4
               -.165                8E-4
              -.0906             6.85E-4
               -.038             5.95E-4
                   0                5E-4
                .038             5.95E-4
               .0906             6.85E-4
                .165                8E-4
                .393              4.4E-4
              .86466            1.695E-4
              .95021             6.95E-5
                  10              3.5E-5
#---1----|----2----|----3----|----4----|----5----|----6----|----7----|----8----|----9----|---10----|
/FUNCT/121
Yield_21_bumper
#                  X                   Y
                 -10              3.8E-4
             -.80343              3.8E-4
             -.79076              3.8E-4
             -.14786               .0011
             -.08675            8.935E-4
             -.07781            8.895E-4
              -.0319             7.45E-4
              -.0049              6.5E-4
                   0             6.35E-4
              .00499              6.5E-4
               .0314             7.45E-4
              .07781            8.895E-4
              .08675            8.935E-4
              .14786               .0011
              .79076              3.8E-4
              .80343              3.8E-4
                  10              3.8E-4
#---1----|----2----|----3----|----4----|----5----|----6----|----7----|----8----|----9----|---10----|
/FUNCT/122
Yield_22_bumper
#                  X                   Y
            -1.00001           5.3749E-7
             -.42962           5.3749E-7
             -.40259          5.46065E-5
              -.3229           .00165928
             -.23347             2.65E-4
                   0                1E-4
              .00995             2.65E-4
              .09437             2.65E-4
              .32254             2.65E-4
              .84507             2.65E-4
              .99995                5E-4
#---1----|----2----|----3----|----4----|----5----|----6----|----7----|----8----|----9----|---10----|
/FUNCT/123
Yield_23_bumper
#                  X                   Y
                 -10          5.00032E-5
                -.31          5.00032E-5
                -.28                5E-4
                -.27                .001
                -.25           .00200003
                 -.2                5E-4
                   0                1E-4
                  .2                5E-4
                 .25           .00200003
                 .27                .001
                 .28                5E-4
                 .31          5.00032E-5
                  10          5.00032E-5
#---1----|----2----|----3----|----4----|----5----|----6----|----7----|----8----|----9----|---10----|
/FUNCT/131
Yield_31_bumper
#                  X                   Y
                 -10              3.8E-4
             -.79343              3.8E-4
             -.75076              3.8E-4
             -.14786               .0011
             -.08675            8.935E-4
             -.07781            8.895E-4
              -.0319             7.45E-4
              -.0049              6.5E-4
                   0             6.35E-4
              .00499              6.5E-4
               .0314             7.45E-4
              .07781            8.895E-4
              .08675            8.935E-4
              .14786               .0011
              .75076              3.8E-4
              .79343              3.8E-4
                  10              3.8E-4
#---1----|----2----|----3----|----4----|----5----|----6----|----7----|----8----|----9----|---10----|
/FUNCT/132
Yield_32_bumper
#                  X                   Y
                 -10          6.10033E-5
                -.52          6.10033E-5
                -.48                .002
                 -.4                .001
             -.37756          6.95033E-4
                -.35              2.5E-4
                   0                1E-4
                 .35              2.5E-4
              .37756          6.95033E-4
                  .4                .001
                 .48                .002
                 .52          6.10033E-5
                  10          6.10033E-5
#---1----|----2----|----3----|----4----|----5----|----6----|----7----|----8----|----9----|---10----|
/FUNCT/133
Yield_33_bumper
#                  X                   Y
            -1.00001           5.3749E-7
             -.42962           5.3749E-7
             -.40259          5.46065E-5
              -.3229           .00165928
             -.23347             2.65E-4
                   0                1E-4
              .00995             2.65E-4
              .32254             2.65E-4
              .84507             2.65E-4
              .99995                5E-4
#---1----|----2----|----3----|----4----|----5----|----6----|----7----|----8----|----9----|---10----|
/FUNCT/200
upper
#                  X                   Y
                   0                   0
                 300                 300
#---1----|----2----|----3----|----4----|----5----|----6----|----7----|----8----|----9----|---10----|
/FUNCT/1111
Yield_11_initial_pic_first_blocks
#                  X                   Y
            -1.00001          1.35678E-9
             -.16435             2.32E-5
              -.1597              .00119
             -.15027              .00117
             -.11405               .0011
             -.07483                .001
             -.06201              9.6E-4
                -.06          9.49268E-4
               -.058          9.50486E-4
               -.056          9.44564E-4
             -.04801          9.10183E-4
               -.036          8.49641E-4
               -.028          8.01017E-4
             -.02001          7.42306E-4
               -.012           6.6686E-4
                -.01          6.43649E-4
               -.008          6.17763E-4
             -.00601          5.88182E-4
               -.004          5.52587E-4
               -.002          5.06782E-4
# ... 10 like lines cut
#---1----|----2----|----3----|----4----|----5----|----6----|----7----|----8----|----9----|---10----|
/FUNCT/2111
Yield_11_initial_pic_bumper
#                  X                   Y
            -1.00001              6.8E-9
             -.16435             1.16E-4
              -.1597              .00595
             -.15027              .00585
             -.11405               .0055
             -.07483                .005
             -.06201               .0048
                -.06           .00474634
               -.058           .00475243
               -.056           .00472282
             -.04801           .00455091
               -.036            .0042482
               -.028           .00400509
             -.02001           .00371153
               -.012            .0033343
                -.01           .00321824
               -.008           .00308881
             -.00601           .00294091
               -.004           .00276293
               -.002           .00253391
# ... 10 like lines cut
#---1----|----2----|----3----|----4----|----5----|----6----|----7----|----8----|----9----|---10----|
/FUNCT/3111
Yield_11_residuelle_bumper
#                  X                   Y
            -1.00001              6.8E-9
             -.16435             1.16E-4
              -.1597              .00595
             -.15027              .00585
             -.11405               .0055
             -.07483                .005
             -.06201               .0048
                -.06           .00474634
               -.058           .00475243
               -.056           .00472282
             -.04801           .00455091
               -.036            .0042482
               -.028           .00400509
             -.02001           .00371153
               -.012            .0033343
                -.01           .00321824
               -.008           .00308881
             -.00601           .00294091
               -.004           .00276293
               -.002           .00253391
# ... 10 like lines cut
#---1----|----2----|----3----|----4----|----5----|----6----|----7----|----8----|----9----|---10----|
#-  9. RIGID BODIES:
#---1----|----2----|----3----|----4----|----5----|----6----|----7----|----8----|----9----|---10----|
/RBODY/1
left
#     RBID     ISENS     NSKEW    ISPHER                MASS   Gnod_id     IKREM      ICOG   Surf_id
     15318         0         0         0                   0       149         0         0         0
#                Jxx                 Jyy                 Jzz
                   0                   0                   0
#                Jxy                 Jyz                 Jxz
                   0                   0                   0
#  Ioptoff               Ifail
         0         0         0
/GRNOD/NODE/149
left_1
     14211     14212     14213     14214     14215     14216     14223     14224     14225     14226
     14231     14232     14233     14236     14247     14255     14256     14259     14260     14261
     14262     14271     14276     14277     14278     14279     14280     14281     14282     14283
     14284     14285     14287     14290     14291     14293     14294     14300     14301     14303
     14304     14311     14312     14314     14315     14320     14321     14323     14324     14326
     14327     14334     14335     14336     14337     14340     14341     14343     14344     14349
     14350     14352     14353     14354     14361     14362     14363     14386     14387     14392
     14393     14394     14395     14396     14397     14407     14408     14411     14412     14424
     14425     14429     14430     14438     14439     14440     14441     14442     14445     14450
     14451     14452     14457     14458     14460     14461     14462     14463     14464     14465
     14467     14468     14469     14470     14471     14472     14485     14486     14489     14490
     14496     14497     14504     14505     14514     14518     14519     14520     14521     14522
     14523     14525     14526     14527     14528     14529     14530     14531     14532     14534
     14535     14536     14539     14540     14541     14543     14544     14547     14548     14550
     14551     14552     14553     14554     14555     14557     14558     14559     14560     14561
     14562     14566     14568     14571     14572     14574     14575     14580     14581     14582
     14583     14584     14585     14586     14587     14591     14601     14602     14603     14604
     14605     14606     14608     14609     14610     14611     14612     14613     14614     14615
     14616     14617     14618     14619     14620     14621     14622     14628     14629     14631
     14632     14634     14635     14636     14637     14638     14639     14640     14644     14645
# ... 43 like lines cut
#---1----|----2----|----3----|----4----|----5----|----6----|----7----|----8----|----9----|---10----|
/RBODY/2
right
#     RBID     ISENS     NSKEW    ISPHER                MASS   Gnod_id     IKREM      ICOG   Surf_id
     15319         0         0         0                   0       150         0         0         0
#                Jxx                 Jyy                 Jzz
                   0                   0                   0
#                Jxy                 Jyz                 Jxz
                   0                   0                   0
#  Ioptoff               Ifail
         0         0         0
/GRNOD/NODE/150
right_2
      1186      1187      1188      1189      1204      1206      1230      1231      1242      1266
      1268      1284      1286      1310      1322      1342      1343      1354      1370      1371
      1376      1390      1402      1418      1424      2481      2482      2499      2513      2514
      2525      2541      2559      2573      2585      2597      2598      2609      2617      2618
      2623      2633      2645      2653      2659      3391      3392      3409      3423      3424
      3435      3451      3469      3483      3495      3507      3508      3519      3527      3528
      3533      3543      3555      3563      3569      6083      6084      6085      6086      6101
      6103      6115      6116      6127      6143      6145      6175      6199      6200      6211
      6219      6220      6225      6235      6255      6909      6910      6921      6933      6934
      6945      6957      6981      7005      7006      7017      7025      7026      7031      7041
      7061      7707      7708      7719      7731      7732      7743      7755      7779      7803
      7804      7815      7823      7824      7829      7839      7859      8954      8955      8956
      8957      8972      8974      8986      8987      8998      9014      9016      9046      9070
      9071      9082      9090      9091      9096      9106      9126      9780      9781      9792
      9804      9805      9816      9828      9852      9876      9877      9888      9896      9897
      9902      9912      9932     10578     10579     10590     10602     10603     10614     10626
     10650     10674     10675     10686     10694     10695     10700     10710     10730     10797
     10798     10799     10800     10802     10803     10805     10806     10807     10810     10811
     10812     10813     10815     10817     10818     10819     10821     10823     10824     10825
     10827     10828     10829     10831     10833     10834     10837     10838     10840     10842
# ... 43 like lines cut
#---1----|----2----|----3----|----4----|----5----|----6----|----7----|----8----|----9----|---10----|
#- 10. IMPOSED DISPLACEMENTS:
#---1----|----2----|----3----|----4----|----5----|----6----|----7----|----8----|----9----|---10----|
/IMPDISP/1
front
#   Ifunct       DIR     Iskew   Isensor   Gnod_id     Frame     Icoor
       200         Z         0         0       154         0         0
#            Scale_x             Scale_y              Tstart               Tstop
                   0                   1                   0                   0
#---1----|----2----|----3----|----4----|----5----|----6----|----7----|----8----|----9----|---10----|
#- 11. TIME HISTORIES:
#---1----|----2----|----3----|----4----|----5----|----6----|----7----|----8----|----9----|---10----|
/TH/NODE/1
impacteur
#     var1      var2      var3      var4      var5      var6      var7      var8      var9     var10
DEF       
#    NODid     Iskew                                           NODname
     15319         0impacteur                                                                       
#---1----|----2----|----3----|----4----|----5----|----6----|----7----|----8----|----9----|---10----|
/TH/RBODY/2
left
#     var1      var2      var3      var4      var5      var6      var7      var8      var9     var10
DEF       
#     Obj1      Obj2      Obj3      Obj4      Obj5      Obj6      Obj7      Obj8      Obj9     Obj10
         1
#---1----|----2----|----3----|----4----|----5----|----6----|----7----|----8----|----9----|---10----|
/TH/RBODY/3
right
#     var1      var2      var3      var4      var5      var6      var7      var8      var9     var10
DEF       
#     Obj1      Obj2      Obj3      Obj4      Obj5      Obj6      Obj7      Obj8      Obj9     Obj10
         2
#---1----|----2----|----3----|----4----|----5----|----6----|----7----|----8----|----9----|---10----|
#include qadiags.inc
/END
#---1----|----2----|----3----|----4----|----5----|----6----|----7----|----8----|----9----|---10----|
