//Copyright>    CFG Files and Library ("CFG")
//Copyright>    Copyright (C) 1986-2026 Altair Engineering Inc.
//Copyright>
//Copyright>    Altair Engineering Inc. grants to third parties limited permission to
//Copyright>    use and modify CFG solely in connection with OpenRadioss software, provided
//Copyright>    that any modification to CFG by a third party must be provided back to
//Copyright>    Altair Engineering Inc. and shall be deemed a Contribution under and therefore
//Copyright>    subject to the CONTRIBUTOR LICENSE AGREEMENT for OpenRadioss software.
//Copyright>
//Copyright>    CFG IS PROVIDED "AS IS", WITHOUT WARRANTY OF ANY KIND, EXPRESS OR IMPLIED,
//Copyright>    INCLUDING, BUT NOT LIMITED TO, THE WARRANTIES OF MERCHANTABILITY, FITNESS FOR
//Copyright>    A PARTICULAR PURPOSE, AND NONINFRINGEMENT.  IN NO EVENT SHALL ALTAIR ENGINEERING
//Copyright>    INC. OR ITS AFFILIATES BE LIABLE FOR ANY CLAIM, DAMAGES, OR OTHER LIABILITY,
//Copyright>    WHETHER IN AN ACTION OF CONTRACT, TORT, OR OTHERWISE, ARISING FROM, OUT OF, OR
//Copyright>    IN CONNECTION WITH CFG OR THE USE OR OTHER DEALINGS IN CFG.
// Material law 135 (General Joint / Discrete Beam)
// Converted from LS-DYNA *MAT_097
//

ATTRIBUTES(COMMON)
{
    // --- System Attributes ---
    KEYWORD_STR                             = VALUE(STRING, "Solver Keyword");
    NUM_COMMENTS                            = SIZE("NUM_COMMENTS");
    COMMENTS                                = ARRAY[NUM_COMMENTS](STRING,  "Entity_Comments");
    CommentEnumField                        = VALUE(INT,  "User Comments");
    IO_FLAG                                 = VALUE(INT, "");
    TITLE                                   = VALUE(STRING,"Title");
    Mat_Name_OR_LawNo                       = VALUE(INT,  "RADIOSS_COMMENT_FLAG");
    LAW_NO                                  = VALUE(STRING, "");

    // --- Physical Attributes ---
    Rho                                     = VALUE(FLOAT,  "Mass density");
    
    // --- Stiffness Scale Factors ---
    LSDYNA_TKR                              = VALUE(FLOAT,  "Translational penalty stiffness scale factor");
    LSDYNA_RKR                              = VALUE(FLOAT,  "Rotational penalty stiffness scale factor");
    
    // --- Translational Constraints (0:Free, 1:Constrained) ---
    LSD_TR                                  = VALUE(INT,  "Translational constraint r-axis");
    LSD_TS                                  = VALUE(INT,  "Translational constraint s-axis");
    LSD_TT                                  = VALUE(INT,  "Translational constraint t-axis");

    // --- Rotational Constraints (0:Free, 1:Constrained) ---
    LSD_RR                                  = VALUE(INT,  "Rotational constraint r-axis");
    LSD_RS                                  = VALUE(INT,  "Rotational constraint s-axis");
    LSD_RT                                  = VALUE(INT,  "Rotational constraint t-axis");
}

SKEYWORDS_IDENTIFIER(COMMON)
{
    // ID Mapping (Preserving original IDs where applicable)
    KEYWORD_STR                             = 9000;
    COMMENTS                                = 3100;
    CommentEnumField                        = 3220;
    NUM_COMMENTS                            = 3101;
	
    IO_FLAG                                 = -1;
    TITLE                                   = -1;
    Mat_Name_OR_LawNo                       = -1;
    LAW_NO                                  = -1;

    Rho                                     = 118; 
    LSDYNA_TKR                              = 265; 
    LSDYNA_RKR                              = 268; 
    LSD_TR                                  = 4745;
    LSD_TS                                  = 4281;
    LSD_TT                                  = 4746;
    LSD_RR                                  = 4747;
    LSD_RS                                  = 4748;
    LSD_RT                                  = 4759;
}

DRAWABLES(COMMON) {
public:
  MASS_DENSITY=SCALAR(Rho);
  FACTOR_FOR_TRANSLATIONAL_CONSTRAINTS=SCALAR(LSDYNA_TKR);
  FACTOR_FOR_ROTATIONAL_CONSTRAINTS=SCALAR(LSDYNA_RKR);
}

DEFAULTS(COMMON)
{
    CommentEnumField      = 1;
    Mat_Name_OR_LawNo     = 1;
    
    Rho                   = 0.0;
    // Default to constrained (safety) or free depending on usage. 
    // Here defaulting to 0 (Free) to match typical explicit definitions.
    LSD_TR = 0; 
	LSD_TS = 0; 
	LSD_TT = 0;
    LSD_RR = 0; 
	LSD_RS = 0; 
	LSD_RT = 0;
    
    LSDYNA_TKR            = 1.0;
    LSDYNA_RKR            = 1.0;
}

//OKK 
GUI(COMMON)
{
    RADIO(CommentEnumField)
    {
        ENUM_VALUE_FLAG=TRUE;
        ADD(1, "Hide in Menu/Export");
        ADD(2, "Show in Menu/Export");
        ADD(3, "Do not export");
    }
    if(CommentEnumField == 2)
    {  
        SIZE(NUM_COMMENTS);
        ARRAY(NUM_COMMENTS,"")
        {
           SCALAR(COMMENTS);
        }
    }

    // Keyword Logic
    if(Mat_Name_OR_LawNo == 2)
    {
	    ASSIGN(KEYWORD_STR, "/MAT");
        ASSIGN(KEYWORD_STR, "/LAW135/");
    }
    else 
    {
        ASSIGN(KEYWORD_STR, "/MAT");
        ASSIGN(KEYWORD_STR, "/GENERAL_JOINT/");    
    }

 mandatory:
     SCALAR(Rho)                    {DIMENSION="density";}
 optional: 
     RADIO(LSD_TR)
     {
        ADD(0, "0: Free");
        ADD(1, "1: Constrained");
     }
     RADIO(LSD_TS)
     {
        ADD(0, "0: Free");
        ADD(1, "1: Constrained");
     }

     RADIO(LSD_TT)
     {
        ADD(0, "0: Free");
        ADD(1, "1: Constrained");
     }

     RADIO(LSD_RR)
     {
        ADD(0, "0: Free");
        ADD(1, "1: Constrained");
     }

     RADIO(LSD_RS)
     {
        ADD(0, "0: Free");
        ADD(1, "1: Constrained");
     }

     RADIO(LSD_RT)
     {
        ADD(0, "0: Free");
        ADD(1, "1: Constrained");
     }

     SCALAR(LSDYNA_TKR)             {DIMENSION="DIMENSIONLESS";}
     SCALAR(LSDYNA_RKR)             {DIMENSION="DIMENSIONLESS";}
}

// OKK
FORMAT(radioss2612) 
{
    ASSIGN(IO_FLAG, 0, EXPORT);
    ASSIGN(IO_FLAG, 1, IMPORT);

    // Import Logic
    if(IO_FLAG == 1) 
    {
        HEADER("/MAT/%3s", LAW_NO);
        if(LAW_NO == "LAW")
		{ 
		    ASSIGN(Mat_Name_OR_LawNo,2);
		}
    }
    // Export Logic
    else if(IO_FLAG == 0 && Mat_Name_OR_LawNo == 2) 
    {	      
		HEADER("/MAT/LAW135/%d", _ID_);
        CARD("%-100s", TITLE);

    }
    else 
    {
        HEADER("/MAT/GENERAL_JOINT/%d", _ID_);
        CARD("%-100s", TITLE);
    }

    // --- Data Block 1: Density ---
    COMMENT("#                RHO");
    CARD("%20lg", Rho);

    // --- Data Block 2: Constraints ---
    // Using ruler comment style for clarity
    //COMMENT("#---1----|----2----|----3----|----4----|----5----|----6----|----7----|----8----|----9----|---10----|");
    COMMENT("#       TR        TS        TT        RR        RS        RT");
    CARD("%10d%10d%10d%10d%10d%10d", LSD_TR, LSD_TS, LSD_TT, LSD_RR, LSD_RS, LSD_RT);

    // --- Data Block 3: Stiffness Scales ---
    COMMENT("#                TKR                 RKR");
    CARD("%20lg%20lg", LSDYNA_TKR, LSDYNA_RKR);
}