#RADIOSS STARTER
#--------------------------------------------------------------------------------------------------|
#- RADIOSS DECK WRITTEN BY HyperCrash
#HyperCrash 2019.1 (64 bits) 
#Fri Mar  6 16:14:55 2020
#-
# INPUT DECK / GENERATED BY  MODEDIT V4.1j
#
#DATE	Fri Dec 13 16:59:15 2002
#
#	Fri Dec 15 14:58:06 1995
#
#--1---|---2---|---3---|---4---|---5---|---6---|---7---|---8---|---9---|--10---|
#
#-
#- DATE	Fri Mar  6 16:14:55 2020
#--------------------------------------------------------------------------------------------------|
#---1----|----2----|----3----|----4----|----5----|----6----|----7----|----8----|----9----|---10----|
/BEGIN
CT3AV4                                                                          
      2019         0
                  kg                   m                   s
                  kg                   m                   s
#---1----|----2----|----3----|----4----|----5----|----6----|----7----|----8----|----9----|---10----|
#-  1. CONTROL CARDS:
#---1----|----2----|----3----|----4----|----5----|----6----|----7----|----8----|----9----|---10----|
/TITLE
POUTRE (MODELE COQUE 3N) SUR APPUIS AVEC VITESSE INITIALE AU CENTRE
#---1----|----2----|----3----|----4----|----5----|----6----|----7----|----8----|----9----|---10----|
#include qadiags.inc
#---1----|----2----|----3----|----4----|----5----|----6----|----7----|----8----|----9----|---10----|
/RANDOM
#       Random-Noise                Seed
                   0                   0
#---1----|----2----|----3----|----4----|----5----|----6----|----7----|----8----|----9----|---10----|
/SPMD
#   DOMDEC     Nproc              Dkword             Nthread
         0         4                   0                   0
#---1----|----2----|----3----|----4----|----5----|----6----|----7----|----8----|----9----|---10----|
/IOFLAG
#     IPRI               IGTYP     IOUTP    IOUTYY   IROOTYY     IDROT
         5                   0         0         0         0         0
#---1----|----2----|----3----|----4----|----5----|----6----|----7----|----8----|----9----|---10----|
/ANALY
#    N2D3D             IPARITH      ISUB
         0                   0         0
#---1----|----2----|----3----|----4----|----5----|----6----|----7----|----8----|----9----|---10----|
/DEF_SOLID
#  I_SOLID    ISMSTR             ISTRAIN                                  IFRAME
         0         0                   0                                       0
#---1----|----2----|----3----|----4----|----5----|----6----|----7----|----8----|----9----|---10----|
/DEF_SHELL
#   ISHELL    ISMSTR    ITHICK     IPLAS   ISTRAIN                        I_SH3N     IDRIL
         0         0         0         0         0                             1         0
#---1----|----2----|----3----|----4----|----5----|----6----|----7----|----8----|----9----|---10----|
/SHFRA/V4
#---1----|----2----|----3----|----4----|----5----|----6----|----7----|----8----|----9----|---10----|
#-  2. MATERIALS:
#---1----|----2----|----3----|----4----|----5----|----6----|----7----|----8----|----9----|---10----|
/MAT/PLAS_JOHNS/1
MATERIEL
#              RHO_I
                 2.7                   0
#                  E                  Nu     Iflag
               .7173                  .3         0
#                  a                   b                   n           EPS_p_max            SIG_max0
              .00295              .00543                   1                   0              .00345
#                  c           EPS_DOT_0       ICC   Fsmooth               F_cut               Chard
                   0                   0         0         0                   0                   0
#                  m              T_melt              rhoC_p                 T_r
                   0                   0                   0                   0
#---1----|----2----|----3----|----4----|----5----|----6----|----7----|----8----|----9----|---10----|
#-  3. NODES:
#---1----|----2----|----3----|----4----|----5----|----6----|----7----|----8----|----9----|---10----|
/NODE
         1                   0                   0                   0
         2                   0               1.225                   0
         3                   0                2.45                   0
         4                   0               3.675                   0
         5                   0                 4.9                   0
         6                   0               6.125                   0
         7                   0                7.35                   0
         8                   0               8.575                   0
         9                   0                 9.8                   0
        10                   0              11.025                   0
        11                   0               12.25                   0
        12               1.525                   0                   0
        13               1.525               1.225                   0
        14               1.525                2.45                   0
        15               1.525               3.675                   0
        16               1.525                 4.9                   0
        17               1.525               6.125                   0
        18               1.525                7.35                   0
        19               1.525               8.575                   0
        20               1.525                 9.8                   0
# ... 12 like lines cut
#---1----|----2----|----3----|----4----|----5----|----6----|----7----|----8----|----9----|---10----|
#-  4. BOUNDARY CONDITIONS:
#---1----|----2----|----3----|----4----|----5----|----6----|----7----|----8----|----9----|---10----|
/BCS/1
CT3AD00_bcs1_111_111
#  Tra rot   skew_ID  grnod_ID
   111 111         0         2
/GRNOD/NODE/2
CT3AD00_bcs1_111_111
         1
#---1----|----2----|----3----|----4----|----5----|----6----|----7----|----8----|----9----|---10----|
/BCS/2
CT3AD00_bcs2_100_011
#  Tra rot   skew_ID  grnod_ID
   100 011         0         3
/GRNOD/NODE/3
CT3AD00_bcs2_100_011
         2         3         4         5         6         7         8         9        10
#---1----|----2----|----3----|----4----|----5----|----6----|----7----|----8----|----9----|---10----|
/BCS/3
CT3AD00_bcs3_110_111
#  Tra rot   skew_ID  grnod_ID
   110 111         0         4
/GRNOD/NODE/4
CT3AD00_bcs3_110_111
        11
#---1----|----2----|----3----|----4----|----5----|----6----|----7----|----8----|----9----|---10----|
/BCS/4
CT3AD00_bcs4_011_111
#  Tra rot   skew_ID  grnod_ID
   011 111         0         5
/GRNOD/NODE/5
CT3AD00_bcs4_011_111
        12
#---1----|----2----|----3----|----4----|----5----|----6----|----7----|----8----|----9----|---10----|
/BCS/5
CT3AD00_bcs5_000_011
#  Tra rot   skew_ID  grnod_ID
   000 011         0         6
/GRNOD/NODE/6
CT3AD00_bcs5_000_011
        13        14        15        16        17        18        19        20        21
#---1----|----2----|----3----|----4----|----5----|----6----|----7----|----8----|----9----|---10----|
/BCS/6
CT3AD00_bcs6_010_111
#  Tra rot   skew_ID  grnod_ID
   010 111         0         7
/GRNOD/NODE/7
CT3AD00_bcs6_010_111
        22
#---1----|----2----|----3----|----4----|----5----|----6----|----7----|----8----|----9----|---10----|
#-  5. PARTS:
#---1----|----2----|----3----|----4----|----5----|----6----|----7----|----8----|----9----|---10----|
/PART/1
Part number 1
         1         1         0
#---1----|----2----|----3----|----4----|----5----|----6----|----7----|----8----|----9----|---10----|
# SH3N elements of /PART/1/Part number 1:
#---1----|----2----|----3----|----4----|----5----|----6----|----7----|----8----|----9----|---10----|
/SH3N/1
         1         2        23         1
         2        13        23         2
         3        12        23        13
         4         1        23        12
         5         3        24         2
         6        14        24         3
         7        13        24        14
         8         2        24        13
         9         4        25         3
        10        15        25         4
        11        14        25        15
        12         3        25        14
        13         5        26         4
        14        16        26         5
        15        15        26        16
        16         4        26        15
        17         6        27         5
        18        17        27         6
        19        16        27        17
        20         5        27        16
# ... 20 like lines cut
#---1----|----2----|----3----|----4----|----5----|----6----|----7----|----8----|----9----|---10----|
#-  6. GEOMETRICAL SETS:
#---1----|----2----|----3----|----4----|----5----|----6----|----7----|----8----|----9----|---10----|
/PROP/TYPE1/1
Part number 1
#   Ishell    Ismstr     Ish3n    Idrill                            P_thick_fail
         0         0         0         0                                       0
#                 hm                  hf                  hr                  dm                  dn
                   0                   0                   0                   0                   0
#        N   Istrain               Thick              Ashear              Ithick     Iplas
         5         0               .3175                   0                   0         0
#---1----|----2----|----3----|----4----|----5----|----6----|----7----|----8----|----9----|---10----|
#-  7. INITIAL VELOCITIES:
#---1----|----2----|----3----|----4----|----5----|----6----|----7----|----8----|----9----|---10----|
/INIVEL/TRA/1
CT3AD00_inivel_1
#                 Vx                  Vy                  Vz   Gnod_id   Skew_id
                   0                   0           -.0117208         8         0
/GRNOD/NODE/8
CT3AD00_inivel_1
         9        10        11        20        21        22        31        32
#---1----|----2----|----3----|----4----|----5----|----6----|----7----|----8----|----9----|---10----|
#-  8. TIME HISTORIES:
#---1----|----2----|----3----|----4----|----5----|----6----|----7----|----8----|----9----|---10----|
/TH/PART/1
Part selection
#     var1      var2      var3      var4      var5      var6      var7      var8      var9     var10
DEF       
#     Obj1      Obj2      Obj3      Obj4      Obj5      Obj6      Obj7      Obj8      Obj9     Obj10
         1
#---1----|----2----|----3----|----4----|----5----|----6----|----7----|----8----|----9----|---10----|
/TH/NODE/2
CT3AV30D00_th_nodes
#     var1      var2      var3      var4      var5      var6      var7      var8      var9     var10
DEF       
#    NODid     Iskew                                           NODname
         1         0                                                                                
         2         0                                                                                
         3         0                                                                                
         4         0                                                                                
         5         0                                                                                
         6         0                                                                                
         7         0                                                                                
         8         0                                                                                
         9         0                                                                                
        10         0                                                                                
        11         0                                                                                
        12         0                                                                                
        13         0                                                                                
        14         0                                                                                
        15         0                                                                                
        16         0                                                                                
        17         0                                                                                
        18         0                                                                                
        19         0                                                                                
        20         0                                                                                
# ... 12 like lines cut
#---1----|----2----|----3----|----4----|----5----|----6----|----7----|----8----|----9----|---10----|
/TH/SH3N/3
CT3AV30D00_th_Shell
#     var1      var2      var3      var4      var5      var6      var7      var8      var9     var10
DEF       
#     Elid   Skew_ID                                            Elname
         1         0                                                                                
         2         0                                                                                
         3         0                                                                                
         4         0                                                                                
         5         0                                                                                
         6         0                                                                                
         7         0                                                                                
         8         0                                                                                
         9         0                                                                                
        10         0                                                                                
        11         0                                                                                
        12         0                                                                                
        13         0                                                                                
        14         0                                                                                
        15         0                                                                                
        16         0                                                                                
        17         0                                                                                
        18         0                                                                                
        19         0                                                                                
        20         0                                                                                
# ... 20 like lines cut
#---1----|----2----|----3----|----4----|----5----|----6----|----7----|----8----|----9----|---10----|
/END
#---1----|----2----|----3----|----4----|----5----|----6----|----7----|----8----|----9----|---10----|
